43
0 1
C        -5.292603    0.358811   -1.146888
C        -4.185014    0.963708   -1.719417
C        -2.922914    0.785644   -1.172526
C        -2.737522   -0.006253   -0.033131
C        -3.864462   -0.614933    0.537689
C        -5.119764   -0.429574   -0.017107
H        -6.277996    0.498994   -1.574220
H        -4.297171    1.582333   -2.601998
H        -2.078458    1.269602   -1.643347
H        -3.749447   -1.228225    1.417476
H        -5.974529   -0.909721    0.444604
C        -1.390790   -0.188949    0.533498
C        -1.088788   -1.025322    1.679578
O        -1.853731   -1.624987    2.375688
O         0.276426   -1.143421    1.982901
N        -0.357402    0.451592   -0.008117
N        -0.019235    1.245742   -0.804142
C         1.167622   -0.513801    1.166220
C         1.670945    0.709247    1.592382
H         1.425091    0.997314    2.609326
C         1.798681   -1.396600    0.152541
C         1.039201   -2.293620   -0.597918
C         3.185260   -1.393235    0.003299
C         1.652590   -3.142839   -1.503971
H        -0.036594   -2.321266   -0.484642
C         3.798011   -2.246918   -0.899415
H         3.782110   -0.720256    0.605149
C         3.032147   -3.119609   -1.660425
H         1.050209   -3.827131   -2.088333
H         4.876273   -2.238007   -1.001125
H         3.509785   -3.787545   -2.366839
C         2.099532    1.689930    0.709187
C         2.341727    3.130453    1.107207
C         1.988812    1.600440   -0.677715
C         1.925949    3.921324   -0.144424
H         3.406934    3.271569    1.321827
C         2.175870    2.948571   -1.308212
H         2.157665    0.697094   -1.241403
H         0.859360    4.148612   -0.091547
H         2.463469    4.863477   -0.250881
H         1.500825    3.097885   -2.152485
H         3.199961    3.032961   -1.690839
H         1.790485    3.419378    2.003664
