28
0 1
C        -0.207372    1.876458   -0.791156
C         0.039483    1.864940    0.601155
C        -0.124108    3.052047    1.301945
C        -0.504554    4.222575    0.655950
C        -0.729386    4.223304   -0.713361
C        -0.583538    3.050194   -1.437013
H         0.057967    3.064137    2.370849
H        -0.620987    5.137019    1.224989
H        -1.022530    5.136157   -1.217000
H        -0.765385    3.033181   -2.504164
C        -0.079158    0.596969   -1.402507
C         0.079158   -0.596969   -1.402507
C         0.207372   -1.876458   -0.791156
C         0.583538   -3.050194   -1.437013
C        -0.039483   -1.864940    0.601155
C         0.729386   -4.223304   -0.713361
H         0.765385   -3.033181   -2.504164
C         0.124108   -3.052047    1.301945
C         0.504554   -4.222575    0.655950
H         1.022530   -5.136157   -1.217000
H        -0.057967   -3.064137    2.370849
H         0.620987   -5.137019    1.224989
C        -0.504554   -0.598835    1.284873
H        -1.432785   -0.273821    0.808646
H        -0.758528   -0.843371    2.317365
C         0.504554    0.598835    1.284873
H         1.432785    0.273821    0.808646
H         0.758528    0.843371    2.317365
