40
-1 1
C         3.415369   -0.625664   -1.249144
C         2.594564   -0.084837   -0.074413
H         4.045881   -1.469069   -0.945939
H         4.067947    0.155316   -1.655399
H         2.758074   -0.966526   -2.053575
C         3.542988    0.201285    1.093123
H         3.987824   -0.724508    1.475542
H         3.005241    0.682620    1.913866
H         4.356329    0.867095    0.784261
C         1.857273    1.217953   -0.490997
C         0.550388    1.291932    0.225800
H         1.653901    1.172287   -1.571944
H         2.564905    2.069652   -0.372210
C        -0.519618    2.231897   -0.302477
C        -1.835317    1.552846   -0.020490
H        -0.400085    2.340200   -1.387338
H        -0.491911    3.258423    0.120402
C        -2.237297    1.531197    1.426153
H        -1.489423    0.994177    2.014977
H        -3.207262    1.061087    1.589502
H        -2.283609    2.555718    1.813870
C        -2.407860    0.803797   -0.961827
C        -3.171803   -0.462978   -0.734973
C        -2.147744   -1.626269   -0.899243
H        -3.990563   -0.595834   -1.455907
H        -3.612472   -0.499997    0.264428
C        -0.953316   -1.616466    0.025277
H        -1.796525   -1.591528   -1.939648
H        -2.695799   -2.577198   -0.793516
C         0.183814   -0.899191   -0.292425
C        -1.207591   -2.126886    1.416377
H        -1.770093   -1.418963    2.054330
H        -0.280266   -2.348361    1.951718
H        -1.797908   -3.054419    1.401281
C         1.528132   -1.114010    0.368873
H         1.898889   -2.129515    0.158895
H         1.403056   -1.055215    1.452608
H         0.255764   -0.619028   -1.343944
H         0.662569    1.352150    1.313376
H        -1.996343    0.893804   -1.967313
