13
0 1
H        -1.373367   -1.850974   -0.228650
C        -0.418297    1.337126   -0.094394
C         0.898623    1.115437   -0.063960
H         2.474692   -0.406878    0.273122
H         0.889056   -2.288410   -0.010493
H        -1.575352    0.177250    1.303184
H        -0.827314    2.320957   -0.287732
H         1.594540    1.927889   -0.240282
C        -1.367504    0.208821    0.217602
C         1.418882   -0.227081    0.135415
N        -0.774631   -1.042852   -0.238308
C         0.562168   -1.255508   -0.003001
H        -2.323063    0.347366   -0.290974
