16
0 1
C         0.003200    0.786020   -0.198775
C        -0.003200    0.665662    1.314438
C         0.003200   -0.665662    1.314438
C        -0.003200   -0.786020   -0.198775
C         1.175628   -1.482936   -0.855133
H         1.163581   -2.556512   -0.649923
H         1.156759   -1.351075   -1.940189
H         2.120702   -1.081472   -0.480021
C        -1.175628    1.482936   -0.855133
H        -1.163581    2.556512   -0.649923
H        -1.156759    1.351075   -1.940189
H        -2.120702    1.081472   -0.480021
H         0.016104   -1.411647    2.100740
H        -0.016104    1.411647    2.100740
H         0.944916    1.181645   -0.593788
H        -0.944916   -1.181645   -0.593788
