45
0 1
C        -1.527963   -2.295721   -0.562245
H        -2.259279   -2.677975    0.145096
H        -0.871262   -0.893044    0.953330
C         0.733656   -2.543045   -0.725713
O         1.797867   -3.068374   -0.864529
C         2.005034    0.543294   -1.187258
O         2.990989    1.418505   -0.869191
O         1.777798   -0.226679    1.043826
H         3.271272   -1.256130    3.653891
H         2.209482    0.162555    3.576102
H         3.840447   -1.803660   -0.003910
H         4.974338   -1.516639    1.336919
C         1.890324    3.595247   -0.922784
H         1.350175    2.442127    0.753103
H         1.740145    4.523997   -1.467870
H        -1.588266    0.169838   -1.813029
C        -2.944148    0.465138   -0.170456
C        -4.389713    1.101525    1.659955
C        -5.345456    0.277725   -0.380755
H        -3.952944   -0.240724   -1.926480
H        -6.500326    0.877837    1.326629
H        -2.251036    1.228742    1.711852
H        -1.980740   -2.220782   -1.554255
C        -0.893641   -0.972928   -0.139505
N         0.466283   -1.184168   -0.640310
O        -0.434582   -3.219642   -0.631665
C         1.486185   -0.281330   -0.289046
H         1.674770    0.509788   -2.219838
B         3.007472   -0.529233    1.603722
C         3.101067   -0.298914    3.148581
H         3.970428    0.320453    3.391621
C         4.183154   -1.071134    0.731463
H         4.622747   -0.240193    0.168937
C         2.906914    2.673042   -1.526335
C         1.209953    3.355621    0.187282
H         0.496234    4.075738    0.567522
C        -1.557283    0.266845   -0.724853
H        -0.933531    1.134594   -0.497457
C        -3.119897    0.954509    1.122753
C        -5.507744    0.761422    0.909019
C        -4.071584    0.131146   -0.914538
H        -6.212066    0.015973   -0.975947
H        -4.508098    1.486433    2.665752
H         3.904285    3.112598   -1.457345
H         2.692173    2.518698   -2.591991
