20
0 2
C         0.179417    1.279402   -0.493731
H         0.401427    0.663040   -1.367983
C         2.058703    0.093792    0.810005
H         2.902500    0.271567    1.484325
H        -0.116435    2.266777   -0.856255
H         1.356090   -0.538695    1.356637
C         1.414235    1.413751    0.393782
H         1.153532    1.969293    1.302613
H         2.156590    2.016674   -0.134563
C        -1.022592    0.690822    0.200661
C        -3.008340   -0.276436   -0.151444
C        -2.041918   -1.380321    0.278576
H        -3.582581    0.108107    0.700277
H        -3.690932   -0.570359   -0.946250
H        -2.365744   -1.898979    1.183102
H        -1.871991   -2.110063   -0.516003
S         2.696937   -0.917489   -0.537011
O        -2.139174    0.724106   -0.649247
O        -0.825128   -0.681337    0.527702
H        -1.256075    1.234259    1.131546
