18
0 1
C        -3.066100   -0.176651   -0.439092
C        -2.031514   -0.203488    0.388683
C        -0.770796    0.587069    0.221263
C         0.470655   -0.297715    0.090895
C         2.997510   -0.385270   -0.166221
C         1.764039    0.500309   -0.032672
H        -3.067394    0.455349   -1.321540
H        -3.948853   -0.780529   -0.266679
H        -2.071437   -0.854377    1.260498
H        -0.857656    1.234962   -0.656495
H        -0.642073    1.247030    1.087795
H         0.536018   -0.961851    0.960653
H         0.355814   -0.949126   -0.782113
H         2.929241   -1.023204   -1.051368
H         3.909833    0.208430   -0.253947
H         3.108245   -1.038863    0.703158
H         1.870949    1.150424    0.842515
H         1.694546    1.166228   -0.899613
