28
-1 1
C        -1.288032    0.973226    0.201172
C        -2.620278    0.251583    0.115396
C        -2.421909   -1.192771    0.543800
H        -2.977841    0.286420   -0.915258
H        -3.357773    0.745669    0.747533
C        -1.223880   -1.857987   -0.144679
C        -0.081769   -1.043055   -0.382708
O        -0.344382    0.370463   -0.633480
C        -1.377127    2.418795   -0.306570
C         0.993366   -1.488227   -1.313766
H         0.736662   -0.847241    0.812737
O         2.345520   -1.262754   -0.828514
H         0.914343   -0.973305   -2.276521
H         0.907970   -2.562575   -1.460964
P         2.730885   -0.132802    0.258196
O         4.132093   -0.234096    0.680922
O         1.594267   -0.281022    1.344827
O         2.448443    1.280833   -0.474176
H         1.503345    1.444554   -0.617943
O        -1.298782   -3.076006   -0.338543
O        -3.580669   -1.955557    0.293930
H        -2.188495   -1.207626    1.616016
H        -3.233123   -2.831170    0.054041
O        -2.386700    3.023737   -0.539177
O        -0.154602    2.964410   -0.425927
H        -0.264994    3.881491   -0.709295
O        -0.876835    1.021082    1.545831
H         0.087586    0.877713    1.595292
