33
0 2
C         0.682795   -1.161521    0.403499
C         2.003995   -1.177099    1.073130
C         3.166887   -0.738674    0.166497
H         2.215787   -2.195933    1.422939
H         1.954872   -0.534852    1.953905
C         3.075485    0.719651   -0.296825
H         3.227338   -1.397219   -0.707539
H         4.098935   -0.877169    0.720920
C         2.038251    0.964917   -1.351191
H         4.050414    1.009983   -0.704619
H         2.886447    1.368654    0.563127
C         1.052790    1.847888   -1.269003
C        -0.385468   -0.294443    0.886136
H         0.527762   -1.809427   -0.449268
O        -0.253539    0.344467    1.931214
N        -1.543673   -0.220779    0.158787
C        -2.316191   -2.192583   -1.152281
C        -1.718348   -0.790503   -1.168463
H        -3.280469   -2.197447   -0.639998
H        -1.659300   -2.891469   -0.630975
H        -2.470405   -2.558884   -2.170089
H        -2.372738   -0.116651   -1.727332
H        -0.765224   -0.779644   -1.696979
C        -2.521406    2.059788    0.282392
C        -2.629829    0.594797    0.686931
H        -3.370826    2.627547    0.669172
H        -2.507004    2.173136   -0.804542
H        -1.606165    2.490242    0.688848
H        -3.569961    0.165506    0.330670
H        -2.613654    0.509807    1.772329
H         2.137848    0.368966   -2.257647
H         0.909096    2.451947   -0.379695
H         0.347508    1.989309   -2.079380
