21
0 2
C        -0.032764    0.808712    0.519375
C        -1.422193    1.163322    0.116795
C        -2.235029   -0.056408   -0.171777
C        -1.177954   -1.154553   -0.366158
H        -2.897577    0.056515   -1.035356
H        -2.888514   -0.299612    0.681146
C        -0.006218   -0.745262    0.543302
H        -0.844522   -1.153735   -1.408385
H        -1.552795   -2.156378   -0.147380
C         1.397801   -1.167555    0.057503
H        -1.823007    2.168735    0.137054
C         1.110565    1.182705   -0.448648
C         2.184433    0.143379   -0.125565
H         1.448881    2.213253   -0.325675
H         0.770738    1.068224   -1.482676
H         2.682386    0.414231    0.810814
H         2.957576    0.070013   -0.892995
H         1.319195   -1.693957   -0.897811
H         1.894346   -1.848104    0.751112
H        -0.199294   -1.106334    1.556579
H         0.220741    1.221106    1.504611
