23
0 1
C         1.963488   -0.158892    0.000005
C         0.564933   -0.766590   -0.000100
C        -0.579649    0.213799   -0.000035
O        -1.748986   -0.436848   -0.000075
O        -0.494886    1.414709    0.000038
C        -2.937728    0.377260   -0.000023
C        -4.123842   -0.554665    0.000053
C         2.274973    0.618102   -1.261739
C         2.274875    0.617879    1.261909
H         0.452659   -1.414285   -0.872937
H        -2.918808    1.020195   -0.881493
H        -2.918714    1.020226    0.881421
H        -4.117731   -1.192322   -0.885114
H        -5.048783    0.025311    0.000070
H        -4.117663   -1.192266    0.885260
H         2.098566   -0.001533   -2.142930
H         3.322423    0.922468   -1.257765
H         1.646869    1.506652   -1.319216
H         2.098414   -0.001917    2.142976
H         1.646757    1.506412    1.319502
H         3.322321    0.922260    1.258065
H         0.452606   -1.414470    0.872593
F         2.823307   -1.290109   -0.000062
