39
0 1
C         1.876157   -0.630663   -1.455050
C         2.786145   -0.096086   -0.390471
C         2.492934    0.874283    0.471526
C         3.497939    1.382082    1.465560
C         1.124999    1.519514    0.505776
C         0.371725    1.105520    1.778944
C         0.362015    1.289776   -0.822203
C         0.437074   -0.159369   -1.317320
C        -0.435897   -1.083371   -0.500207
O        -0.084724   -2.225206   -0.224323
C        -1.768706   -0.583498   -0.144476
C        -2.108079    0.773276   -0.326129
C        -1.067311    1.772015   -0.722834
O        -1.352058    2.931328   -0.918590
C        -3.387727    1.218211   -0.062212
C        -4.347880    0.316281    0.393529
C        -4.032959   -1.009385    0.603686
C        -2.739482   -1.473058    0.349715
O        -2.479167   -2.762437    0.579691
H         3.237470    1.095401    2.488267
H         4.491074    0.995867    1.245903
H         3.538651    2.474924    1.440642
H         0.957803    1.377311    2.657198
H        -0.592335    1.609302    1.865410
H         0.203177    0.028271    1.822440
H        -3.613988    2.266864   -0.199515
H        -5.353448    0.662457    0.600252
H        -4.765561   -1.716745    0.970492
H        -1.528359   -2.914329    0.382718
O         4.052199   -0.645490   -0.431641
C         4.174595   -1.877342    0.262753
H         4.026381   -1.732881    1.337771
H         5.183723   -2.242939    0.080425
H         3.452737   -2.616846   -0.097099
H         0.842811    1.924445   -1.569229
H         1.273581    2.602843    0.568455
H        -0.033656   -0.187355   -2.308985
H         1.898541   -1.721728   -1.445365
H         2.278155   -0.319548   -2.424406
