29
1 1
C         2.846915   -0.663033    1.195654
C         2.227336   -1.098769   -0.141879
C         2.609828    1.053219   -0.475258
C         3.121448    0.850329    0.957018
H         2.178856   -0.853337    2.035000
H         3.764145   -1.226632    1.365866
H         2.592449    1.492462    1.658541
H         4.184238    1.081699    1.018337
C         2.994071   -0.262240   -1.162920
H         2.621402   -0.358357   -2.183179
H         4.063051   -0.466350   -1.137895
H         2.107527   -2.164975   -0.311030
H         2.892263    1.985279   -0.956164
N         1.126725    0.959272   -0.409154
N         0.897394   -0.416668   -0.216256
C        -0.250998   -0.975076   -0.046955
C        -1.562290   -0.383599   -0.012628
C        -1.820392    0.994624    0.079717
C        -2.638132   -1.286530   -0.033274
C        -3.125794    1.441977    0.143956
H        -1.007312    1.702027    0.138784
C        -3.939154   -0.826669    0.011980
H        -2.445429   -2.351802   -0.087541
C        -4.182589    0.538557    0.100263
H        -3.324681    2.502519    0.227968
H        -4.763029   -1.527729   -0.012931
H        -5.202018    0.901775    0.141722
H         0.682160    1.240956   -1.281894
H        -0.193948   -2.052503    0.068251
