28
0 1
C        -2.798793    0.842171    0.409892
C        -1.734243    1.494873   -0.490164
C        -0.531686    0.617344   -0.494391
C        -0.471516   -0.628039   -0.026827
C        -1.603361   -1.416564    0.533624
C        -2.907936   -0.674766    0.191787
H        -2.114955    1.622927   -1.510702
H        -1.488582    2.499201   -0.130170
H        -2.533949    1.028901    1.456259
H        -3.771789    1.310798    0.243784
H        -1.622720   -2.434721    0.133720
H        -1.490615   -1.518799    1.620120
H        -3.155147   -0.864044   -0.858419
H        -3.733698   -1.074312    0.785324
C         2.805981    0.612396    0.732007
C         1.846954    1.608363    0.059071
C         1.033440   -0.740334   -0.217656
C         1.943174   -0.626656    1.009317
H         3.280627    1.014953    1.629370
H         2.374775    2.378386   -0.506225
H         1.245029    2.117927    0.818017
H         2.527172   -1.537533    1.140773
H         1.342772   -0.476337    1.910006
H         3.603369    0.344570    0.032526
O         1.519103   -1.778140   -1.047447
H         0.973003   -1.815193   -1.838225
C         0.952558    0.720504   -0.817746
H         1.204455    0.772646   -1.880056
