41
0 1
C         1.632472    1.094286    0.620386
C         0.503210    0.003578    0.601711
C         0.863163    2.415193    0.666106
C         2.542487    1.063931   -0.607415
C         0.998869   -1.319287    0.027001
C        -0.609922    0.679432   -0.247704
C         0.034207   -0.203196    2.060160
C         1.925892   -1.269340   -1.164023
C         3.104671   -0.320992   -0.917182
C         4.035269   -0.847340    0.174150
C        -0.377228    2.147180   -0.168716
C        -2.195121    0.030599    1.136200
C        -1.395460   -0.742964    2.125696
N        -2.935452   -0.508480    0.162649
O        -3.212717    0.364211   -0.784169
C        -1.563494   -1.207865   -1.649158
C        -2.502286   -1.731618   -0.505134
H         2.237732    0.951945    1.518387
H         1.417110    3.260780    0.258490
H         0.553905    2.689225    1.678138
H         3.356090    1.778848   -0.453740
H         1.981371    1.417995   -1.479457
O         0.674558   -2.376462    0.522551
H         0.061077    0.765168    2.564895
H         0.720010   -0.862317    2.594993
H         1.360066   -0.904597   -2.026184
H         2.250751   -2.289045   -1.374302
H         3.678364   -0.255662   -1.846295
H         4.462068   -1.811102   -0.111279
H         3.514755   -0.994800    1.123812
H         4.859544   -0.152732    0.351506
O        -1.044534    2.998328   -0.707126
H        -1.399917   -1.807514    1.911047
H        -1.801137   -0.601760    3.131050
H        -2.002127   -2.414761    0.174765
H        -3.380626   -2.211989   -0.928680
C        -1.324136    0.247982   -1.384766
H        -2.056968   -1.326644   -2.611337
H        -0.656915   -1.808710   -1.660707
H        -1.484030    0.966783   -2.176828
H        -2.496973    1.044154    1.369261
