56
1 1
C         1.608758   -0.329377   -0.311197
C         3.148128    1.833182   -0.328583
C         4.310381    0.898517   -0.683018
C         4.142307   -0.499353   -0.117071
C         2.866613   -1.113616   -0.682337
H         4.393134    0.837364   -1.773361
H         5.229919    1.356008   -0.312247
H         4.069862   -0.462657    0.971069
H         2.953579   -1.165404   -1.771902
H         2.755802   -2.131694   -0.308322
N         1.858619    1.119661   -0.564146
O         0.817432    1.862181   -0.605850
C         0.444866   -0.765263   -1.200277
H         0.330309   -1.846809   -1.120161
H        -0.493895   -0.300088   -0.902494
H         0.639609   -0.516739   -2.244114
C         1.240793   -0.539128    1.166405
H         0.426549    0.120159    1.471833
H         0.897380   -1.565918    1.295593
H         2.083320   -0.389916    1.837890
C         3.181861    3.056534   -1.243400
H         2.428153    3.791437   -0.965185
H         4.162098    3.528280   -1.165325
H         3.019773    2.768524   -2.282718
C         3.217874    2.283649    1.138565
H         4.097900    2.914046    1.270754
H         2.349207    2.888388    1.406247
H         3.294123    1.450098    1.834042
C        -1.426157    3.586260    0.484784
C        -1.907454    2.353500    0.646000
C        -0.637750    2.673920    1.213692
H        -1.546407    4.593897    0.125388
H         0.357149    2.170360    0.427879
H        -0.183310    2.648165    2.202440
C        -2.919707    1.364432    0.449226
C        -4.001037    1.628831   -0.397844
C        -2.820354    0.130053    1.098098
C        -4.967694    0.663353   -0.598362
H        -4.076137    2.587047   -0.896256
C        -3.791553   -0.832233    0.899914
H        -1.986808   -0.067754    1.759735
C        -4.857252   -0.561678    0.050179
H        -5.810177    0.857208   -1.248642
H        -3.730905   -1.786874    1.405172
C        -5.883438   -1.635356   -0.211971
F        -7.076443   -1.114153   -0.516774
F        -5.503371   -2.406297   -1.244506
F        -6.040285   -2.435259    0.849120
N         5.301593   -1.317724   -0.404216
C         5.551443   -2.431807    0.346839
C         6.770288   -3.232748   -0.025170
H         7.428551   -3.285413    0.842377
H         6.460846   -4.250855   -0.262724
H         7.322099   -2.818031   -0.868955
O         4.817197   -2.739635    1.267137
H         5.885133   -1.105405   -1.197156
