15
0 2
C        -0.949581    0.008529    0.435914
C        -0.015128    1.258404    0.191175
C         1.390080    0.683562   -0.055039
H        -0.068028    1.926351    1.050348
H        -0.383764    1.810096   -0.674585
C         1.157193   -0.777441   -0.444935
H         1.973706    0.726118    0.868839
H         1.936523    1.247647   -0.811973
C         0.006603   -1.192276    0.467358
H         2.046289   -1.399076   -0.328729
H         0.838175   -0.841868   -1.488399
O        -1.777000   -0.006398   -0.649540
H         0.364147   -1.333262    1.492895
H        -0.501236   -2.107162    0.159238
H        -1.524822    0.137675    1.361851
