15
-1 1
O         0.578012    1.821886   -0.971547
C         0.570864    0.857472   -0.238064
C         1.674528   -0.216113   -0.279960
O         2.363363   -0.114426    1.011320
O         1.182266   -1.436383   -0.461251
C        -0.571920    0.639028    0.746185
H         2.408434    0.117512   -1.037603
C        -1.766070   -0.128603    0.175604
H        -0.941762    1.608548    1.073447
H        -0.192751    0.080666    1.604696
O        -2.915977    0.255904    0.370495
N        -1.435898   -1.234430   -0.503112
H         2.270241   -1.020064    1.329614
H        -0.409090   -1.488682   -0.580281
H        -2.189510   -1.783522   -0.882811
