27
-1 1
C        -1.037318   -0.914662   -0.338961
C        -1.534596    0.361263   -0.082840
C        -2.890173    0.518121    0.193777
C        -3.740532   -0.576835    0.210187
C        -3.239189   -1.846405   -0.049670
C        -1.887090   -2.011295   -0.321899
C        -0.670057    1.597233   -0.130867
O        -1.142438    2.658648    0.226086
C         0.716173    1.487270   -0.694798
C         1.696835    0.676128    0.177675
C         1.611301    0.446799    1.495625
C         2.817110    0.180468   -0.726994
O         3.917858   -0.469754   -0.134500
C         3.590204   -1.708326    0.453467
H         2.392684   -0.491297   -1.505412
H         3.251708    1.029802   -1.272097
H         0.704448    0.934014    1.904471
H         4.525744   -2.148020    0.808932
H         2.893649   -1.555997    1.281411
H         3.145664   -2.385760   -0.296829
H        -3.254445    1.517324    0.397436
H        -4.794248   -0.442233    0.428066
H        -3.899506   -2.706642   -0.032411
H        -1.487339   -3.001561   -0.507668
H         0.024257   -1.046333   -0.498425
H         1.077663    2.507595   -0.859701
H         0.620358    1.019396   -1.688671
