12
-1 1
C         1.845914    0.134152   -0.000001
O         1.588377    1.340761    0.000009
C         3.307278   -0.321214    0.000007
H         3.976435    0.538868   -0.000051
H         3.496815   -0.939952   -0.879942
H         3.496833   -0.939835    0.880035
O         1.006662   -0.827270   -0.000011
Cl       -3.188081    0.077128   -0.000001
C        -0.950875   -0.325162   -0.000006
H        -1.026085   -0.861433   -0.924866
H        -1.026084   -0.861445    0.924848
H        -0.694753    0.718027    0.000001
