23
0 1
C         0.585378    0.140084   -0.000014
C         1.512365    1.251823    0.000026
C         1.038892   -1.232701   -0.000093
C         2.865579    1.282437    0.000058
C         2.294471   -1.741749   -0.000089
C         3.822900    0.224616    0.000061
C         3.570811   -1.103089   -0.000004
C        -0.772820    0.432004    0.000011
C        -1.187562    1.795710    0.000082
N        -1.474977    2.910189    0.000139
C        -1.860949   -0.562299   -0.000027
O        -1.751098   -1.768515   -0.000066
O        -3.056691    0.042275   -0.000011
C        -4.196530   -0.818274   -0.000036
H        -4.196501   -1.450128   -0.888031
H        -4.196485   -1.450201    0.887906
H        -5.057854   -0.156098   -0.000002
H         0.239536   -1.958855   -0.000159
H         2.339182   -2.826302   -0.000157
H         4.426585   -1.769323    0.000002
H         4.862406    0.533321    0.000114
H         1.039346    2.226011    0.000037
H         3.295737    2.278803    0.000092
