23
0 1
S        -1.232660   -0.235035    0.141959
C        -0.254425   -1.390641   -0.934291
C         0.857753   -2.243894   -0.272366
C         1.767207   -1.315069    0.482543
C         1.312009    1.806067   -0.440986
C         0.011509    2.410494   -0.011708
C        -1.119820    1.487319   -0.504020
C         2.361568   -0.302604   -0.155653
C         2.004770    1.009206    0.377326
O        -0.713826   -0.245790    1.507598
O        -2.625117   -0.605475   -0.107077
H        -1.039831   -2.011181   -1.364814
H         0.170658   -0.769919   -1.722763
H         1.363440   -2.769860   -1.088104
H         0.417691   -2.995874    0.381908
H        -0.182987    3.398897   -0.439597
H        -0.038671    2.498928    1.074460
H        -1.126804    1.395083   -1.592004
H        -2.099500    1.862508   -0.202594
H         1.426792    1.668785   -1.515614
H         1.843284    1.075536    1.448498
H         2.537500   -0.364787   -1.227993
H         1.519093   -1.182700    1.528029
