21
0 2
C         0.317958   -0.371629    0.473654
C        -0.839777   -1.375732    0.557430
C        -1.916713   -0.846091   -0.392110
H        -1.228733   -1.399827    1.578690
H        -0.484441   -2.376672    0.313540
C        -1.780168    0.666976   -0.245471
H        -2.916033   -1.213407   -0.152211
H        -1.693132   -1.142080   -1.421133
C        -0.247821    0.891556   -0.246529
H        -2.199742    0.992250    0.712300
H        -2.275558    1.238862   -1.031733
C         0.182988    2.188370    0.325598
H         0.447519    3.028569   -0.302866
H         0.134186    2.353903    1.396132
O         1.380922   -0.968725   -0.246786
C         2.569336   -0.215257   -0.237383
H         2.909329   -0.027767    0.789546
H         2.448412    0.750557   -0.741761
H         3.324167   -0.798358   -0.763482
H         0.686524   -0.104277    1.473242
H         0.085310    0.818888   -1.287111
