12
0 2
O        -2.133264   -0.580539    0.000009
C        -1.597183    0.466600   -0.000009
C        -0.118263    0.767834    0.000000
C         0.778869   -0.468577   -0.000012
H         0.067521    1.404933    0.870625
H         0.067536    1.404964   -0.870598
H         0.542624   -1.080693    0.873721
C         2.257118   -0.098404    0.000007
H         0.542640   -1.080665   -0.873769
H         2.518711    0.491142   -0.882550
H         2.885142   -0.991194   -0.000005
H         2.518697    0.491109    0.882590
