17
0 1
H        -3.454557    0.000014    0.704154
C         0.502614   -0.694569    0.007792
C         0.502614    0.694570    0.007792
C         1.677678    1.415592    0.001876
C         2.870631    0.696064   -0.008607
C         2.870631   -0.696062   -0.008606
C         1.677679   -1.415591    0.001877
C        -0.907376   -1.176798    0.017296
C        -0.907377    1.176797    0.017298
H         1.665212    2.498041    0.001505
H         3.814686    1.226652   -0.018148
H         3.814687   -1.226650   -0.018147
H         1.665214   -2.498040    0.001507
O        -1.341973    2.291007   -0.028383
O        -1.341970   -2.291008   -0.028382
N        -1.669751   -0.000001    0.111162
O        -3.008500   -0.000001   -0.151899
