10
0 1
C         0.000000    0.701249    1.050981
C         0.000000    1.453649   -0.132376
C         0.000000    0.618142   -1.229546
C         0.000000   -0.618142   -1.229546
C         0.000000   -1.453649   -0.132376
C         0.000000   -0.701249    1.050981
H         0.000000    1.224207    2.000751
H         0.000000    2.534858   -0.135101
H         0.000000   -2.534858   -0.135101
H         0.000000   -1.224207    2.000751
