40
0 2
Si         1.444292   -0.002664    0.049038
C         1.563014   -1.428156   -1.177528
C         2.251247   -2.684392   -0.634156
C         0.553579    1.438578   -0.779833
C         0.490299    2.724122    0.051159
C         3.169690    0.535681    0.594089
C         4.065672    1.035093   -0.544500
C         0.474312   -0.576709    1.585594
C        -0.874172   -1.080415    1.235355
C        -2.074053   -0.198758    1.184682
C        -3.020487   -0.509214    0.024277
C        -5.187683    0.073445   -1.169138
C        -4.253325    0.386936   -0.006301
H         0.548424   -1.673130   -1.508570
H         2.088224   -1.072770   -2.070718
H         1.721699   -3.087181    0.233048
H         2.296073   -3.478196   -1.383607
H         3.277387   -2.476349   -0.319978
H        -0.457674    1.110854   -1.041998
H         1.051104    1.641238   -1.734628
H        -0.049879    3.517595   -0.470862
H        -0.015230    2.562995    1.006762
H         1.489817    3.104780    0.275769
H         3.650595   -0.305904    1.104184
H         3.064889    1.316313    1.355311
H         4.221558    0.260966   -1.300243
H         3.626299    1.898186   -1.051452
H         5.051078    1.338315   -0.182505
H        -2.643966   -0.277321    2.125337
H        -1.760076    0.849643    1.126498
H        -2.474863   -0.411426   -0.921107
H        -3.332968   -1.558021    0.086301
H        -5.545260   -0.958496   -1.118572
H        -6.061656    0.728310   -1.170307
H        -4.677252    0.198320   -2.127915
H        -3.935046    1.433747   -0.063147
H        -4.796118    0.285428    0.939736
H        -0.996974   -2.129367    0.985349
H         1.076144   -1.348196    2.078052
H         0.415014    0.269693    2.280538
