32
-1 1
C        -2.285945    1.689378   -0.337256
N        -1.201140    1.216987    0.317846
C        -1.234566   -0.033594    0.838114
C        -2.347020   -0.812707    0.724622
C        -3.513825   -0.355756    0.051171
C        -3.422574    0.960036   -0.489628
C         0.056328    2.032497    0.469177
C         1.270067    1.421636   -0.114972
C         2.008325    0.534859    0.643931
O         1.675577    0.122029    1.797479
C        -4.660094   -1.157327   -0.060716
N        -5.741040   -0.688477   -0.694557
O        -6.734680   -1.445597   -0.761890
C         3.293386   -0.024289    0.071153
C         3.817443   -1.178430    0.649723
C         4.988822   -1.750100    0.173932
C         5.668774   -1.169119   -0.889183
C         5.165531   -0.008667   -1.464714
C         3.991408    0.557014   -0.987096
H        -4.267430    1.370731   -1.022335
H        -2.189685    2.690087   -0.738095
H         3.620423    1.472381   -1.430332
H         5.694728    0.462315   -2.286295
H         6.586381   -1.611165   -1.261573
H         5.375719   -2.652393    0.635639
H         3.276356   -1.599183    1.487941
H        -0.182382    2.999234    0.021333
H         0.188837    2.163971    1.545664
H        -0.319482   -0.333803    1.344287
H        -2.332971   -1.803230    1.160581
H        -4.690249   -2.160545    0.362526
H         1.531481    1.657982   -1.136634
