18
-1 1
O         1.645858    2.495473    0.020640
C         1.209817    1.344564    0.002871
C        -0.200601    0.992540   -0.003636
N         2.052888    0.241273   -0.004949
C         1.568946   -0.986775   -0.021820
C        -0.532805   -0.350992   -0.010551
N         0.294269   -1.406051   -0.015782
N        -1.350414    1.764904    0.001501
C        -2.333311    0.913951   -0.002390
N        -1.907937   -0.400463   -0.016866
H        -3.386349    1.160242   -0.005895
C        -2.703490   -1.598409    0.023870
H        -2.176670   -2.385681   -0.515223
H        -3.668955   -1.416466   -0.451942
H        -2.871479   -1.940728    1.050092
N         2.521870   -2.011872   -0.073078
H         2.189953   -2.877602    0.323597
H         3.420571   -1.707357    0.268407
