52
0 1
C         0.672391    2.879273   -0.664082
C         0.995994    1.686039    0.260341
C        -2.022595    1.177180   -0.170494
H         0.881588    2.597284   -1.703591
C         0.530323    1.902184    1.719124
H         1.325573    1.566860    2.389722
H         0.403684    2.970691    1.923013
H        -3.037444    0.852513   -0.418168
H         2.092824    1.638815    0.285983
C        -0.731326    1.138121    2.129393
H        -0.510130    0.069092    2.078764
H        -0.926555    1.341900    3.187325
C        -2.026495    1.406436    1.358984
H        -2.791053    0.761569    1.803158
H        -2.365280    2.429145    1.556172
C        -1.868862    2.489482   -0.965448
H        -1.774176    2.237216   -2.028008
C        -0.742944    3.437502   -0.570519
H        -0.806915    4.323441   -1.210593
H        -0.919661    3.801844    0.445406
H        -2.809901    3.043229   -0.870953
H         1.364698    3.695986   -0.427969
C        -1.059600    0.059276   -0.659652
H        -1.055061    0.141133   -1.760246
Si       -1.822057   -1.664026   -0.492634
C        -0.839253   -2.913235   -1.508528
H         0.166298   -3.105556   -1.130927
H        -1.366436   -3.871055   -1.529381
H        -0.739241   -2.569062   -2.541106
C        -3.561438   -1.639967   -1.215606
H        -3.953874   -2.658101   -1.286300
H        -4.258945   -1.063974   -0.603746
H        -3.570218   -1.211807   -2.221530
C        -1.971649   -2.278997    1.281878
H        -2.602922   -1.614024    1.875276
H        -2.435553   -3.269299    1.292568
H        -1.012853   -2.360277    1.795048
B         0.476057    0.298580   -0.326479
C         1.525759   -1.114639    0.582927
H         0.716508   -1.818508    0.455687
C         2.247108   -1.165809    1.854816
H         3.157537   -0.575191    1.909140
C         1.854286   -1.836480    2.934097
H         0.958238   -2.446863    2.934526
H         2.416939   -1.792660    3.857644
C         2.179143   -0.778145   -0.612949
O         1.403117   -0.219947   -1.475716
O         3.478616   -0.771750   -0.776623
C         4.002878   -0.062845   -1.914384
H         3.732008   -0.579983   -2.833333
H         3.612142    0.953213   -1.934647
H         5.080514   -0.062791   -1.780349
