30
0 2
O        -1.812277    0.505273   -1.356979
C        -2.955345   -0.241704   -0.905393
C        -2.802203   -0.336627    0.626401
C        -2.101273    0.996023    0.957509
C        -1.319033    1.345288   -0.346337
C        -3.018208   -1.523623   -1.629001
H        -3.860526    0.350094   -1.106564
H        -3.952280   -2.063805   -1.691535
H        -2.101355   -1.991607   -1.957963
O        -2.060509   -1.426446    1.096547
H        -3.780048   -0.399250    1.103370
H        -1.192620   -1.480872    0.626742
O        -1.312293    0.930515    2.104817
H        -2.852333    1.776953    1.101887
H        -1.191141   -0.011073    2.301347
N         0.118643    1.202034   -0.265673
H        -1.485272    2.392030   -0.616720
C         1.029484    2.224107   -0.426464
N         2.268866    1.839773   -0.371093
C         2.187305    0.478627   -0.166746
C         0.866451    0.063130   -0.096626
N         0.465713   -1.198711    0.097247
C         1.480784   -2.048246    0.214397
N         2.782363   -1.781108    0.156458
C         3.169110   -0.514065   -0.031932
N         4.481971   -0.232553   -0.086738
H         5.147751   -0.978127    0.023308
H         4.789951    0.715466   -0.220052
H         1.216727   -3.087367    0.379441
H         0.696457    3.239316   -0.584588
