21
0 2
C         1.919407    0.662812    0.377205
C         0.575679    1.085021   -0.088017
C        -0.514457    0.018456    0.103444
H         0.632914    1.345351   -1.151120
H         0.292243    1.996329    0.447222
C        -1.877380    0.474656   -0.420257
H        -0.599476   -0.232240    1.165399
H        -0.206556   -0.896346   -0.411045
C        -2.931648   -0.578685   -0.276631
H        -1.774737    0.739956   -1.479456
H        -2.192392    1.383316    0.102601
C        -4.040452   -0.457539    0.439242
O         2.492986   -0.321183   -0.362001
C         3.746773   -0.776860    0.106286
H         3.664915   -1.152432    1.131936
H         4.487059    0.027950    0.074162
H         4.058867   -1.586176   -0.550647
H         2.197245    0.696426    1.429443
H        -4.762258   -1.262204    0.511078
H        -4.267528    0.456371    0.979038
H        -2.741720   -1.514005   -0.800228
