22
0 2
C        -1.888885   -0.310783   -0.079125
C        -1.230198    1.025750    0.202820
C         0.179584    1.210541   -0.347019
H        -1.226762    1.173691    1.289464
H        -1.888047    1.807222   -0.191302
C         1.209643    0.343284    0.288454
H         0.458526    2.268903   -0.218722
H         0.177965    1.055677   -1.434564
C         2.586617    0.249707   -0.265703
H         1.017186   -0.052581    1.281680
N        -1.342322   -1.308366   -0.636464
C        -3.323583   -0.414814    0.357931
H        -3.417846   -0.199778    1.426131
H        -3.700879   -1.415200    0.156601
H        -3.940414    0.316607   -0.171873
C         3.422617   -0.863289    0.359251
H         3.106773    1.212587   -0.129545
H         2.534873    0.112597   -1.353781
H         4.429340   -0.888363   -0.061994
H         2.961702   -1.838995    0.191145
H         3.515799   -0.721136    1.438702
H        -0.366742   -1.115044   -0.866342
