43
0 1
C        -5.243889    0.520821   -1.001684
C        -4.137300    1.179697   -1.511168
C        -2.867057    0.925457   -1.012455
C        -2.683192   -0.008116    0.018077
C        -3.813101   -0.672340    0.525965
C        -5.071414   -0.406285    0.019870
H        -6.232861    0.725320   -1.393874
H        -4.256110    1.905365   -2.307122
H        -2.015299    1.450230   -1.412321
H        -3.691249   -1.396448    1.317563
H        -5.927707   -0.929596    0.428273
C        -1.368606   -0.321019    0.558749
C        -1.077786   -1.278283    1.617596
O        -1.795864   -2.001365    2.242595
O         0.276785   -1.230435    1.888276
N        -0.216124    0.273956    0.229720
N        -0.014009    1.250478   -0.570084
C         0.925039   -0.427657    0.938097
C         1.771460    0.633388    1.571554
C         1.660234   -1.310759   -0.064563
C         2.955791   -1.718563    0.234189
C         1.048388   -1.770126   -1.225432
C         3.631895   -2.580138   -0.614836
H         3.438221   -1.361348    1.135093
C         1.730415   -2.626366   -2.079025
H         0.042389   -1.460327   -1.477646
C         3.020744   -3.033952   -1.776068
H         4.638436   -2.896241   -0.369883
H         1.247884   -2.973852   -2.984152
H         3.550094   -3.703287   -2.443166
C         1.996765    1.694732    0.815736
C         2.731883    2.979614    1.083056
C         1.358567    1.744969   -0.553859
C         2.743721    3.686738   -0.284401
H         3.727327    2.816449    1.498402
C         1.447635    3.218478   -0.955166
H         2.809206    4.771412   -0.199002
H         3.606545    3.351632   -0.867100
H         0.585861    3.743765   -0.535039
H         1.436595    3.364292   -2.035058
H         2.169810    3.572243    1.811506
H         2.110541    0.484823    2.588169
H         1.962730    1.137181   -1.244444
