21
0 1
C         2.584957    0.642421   -0.000005
C         1.101677    0.395438   -0.000002
C         0.584487   -0.894363   -0.000020
C         0.231931    1.485022    0.000017
C        -0.786626   -1.099357   -0.000020
H         1.264869   -1.733921   -0.000033
C        -1.137113    1.297031    0.000015
H         0.629874    2.493794    0.000032
C        -1.625082   -0.000043   -0.000003
H        -1.210127   -2.093560   -0.000033
H        -1.826925    2.128602    0.000029
O         3.284541   -0.572136    0.000010
C         4.682132   -0.398835    0.000013
H         5.014684    0.146186    0.892171
H         5.130610   -1.390521    0.000020
H         5.014690    0.146177   -0.892147
N        -3.081146   -0.211626   -0.000003
O        -3.486560   -1.357908   -0.000007
O        -3.795246    0.773116    0.000002
H         2.855140    1.238071   -0.884748
H         2.855141    1.238094    0.884721
