17
0 2
C        -1.918371   -0.515198   -0.031121
H        -1.863129   -1.106353   -0.960112
H        -1.883758   -1.257709    0.775700
C        -0.687784    0.386683    0.045818
H        -0.734052    1.122252   -0.765068
C         1.842687    0.519019    0.041598
H         1.831420    1.245014   -0.773547
O         3.066159   -0.187384   -0.097562
H        -0.720233    0.956799    0.980377
H         1.829061    1.083916    0.982886
C         0.624092   -0.384562   -0.043343
C        -3.205547    0.223787    0.017931
H        -4.132915   -0.287445    0.241372
H        -3.259408    1.262631   -0.284395
H         0.667872   -1.123693    0.766660
H         0.669878   -0.945071   -0.982165
H         3.135523   -0.829638    0.613488
