11
0 1
C         0.556558    1.288319    0.000196
C         1.763509    0.742149    0.000110
C         0.556549   -1.288319   -0.000198
C         1.763504   -0.742156   -0.000116
S        -0.687295    0.000004    0.000001
O        -1.420280   -0.000194    1.255715
O        -1.420284    0.000193   -1.255710
H         2.683961   -1.309866   -0.000203
H         0.256282   -2.324321   -0.000353
H         0.256297    2.324322    0.000352
H         2.683970    1.309853    0.000194
