28
0 1
C         3.721433   -0.356417   -0.141190
H         4.468336   -0.501599    0.634371
H         3.442051    0.694290   -0.216972
H         4.095557   -0.699005   -1.105408
O         2.591216   -1.136035    0.262365
C         1.537277   -1.089920   -0.557321
O         1.525059   -0.459497   -1.584360
C         0.378248   -1.892311   -0.070802
C         0.482379   -2.720895    0.962328
C        -0.901118   -1.672710   -0.812690
H        -1.525899   -2.565175   -0.842514
H        -0.729341   -1.303732   -1.821500
S        -1.971055   -0.448826   -0.000401
C        -0.919608    0.979802    0.172826
C        -0.819143    1.873681   -0.882311
C        -0.183007    1.133748    1.338168
C         0.055694    2.942260   -0.770187
H        -1.421204    1.729245   -1.769919
C         0.690762    2.206603    1.437605
H        -0.306757    0.426287    2.147290
C         0.811229    3.104104    0.384480
H         0.148299    3.649420   -1.584682
H         1.271800    2.345152    2.340889
H         1.494157    3.941170    0.466671
O        -3.040577   -0.135220   -0.939614
O        -2.272039   -0.951473    1.336120
H        -0.373237   -3.288309    1.306616
H         1.418963   -2.836400    1.490043
