7
0 2
C        -1.374084   -0.276826   -0.000001
C         0.014622    0.109387    0.000002
H        -2.117816    0.505598    0.000011
H        -1.660192   -1.318519   -0.000017
O         0.415121    1.252582    0.000014
O         0.857027   -0.950489   -0.000013
H         1.757601   -0.599192   -0.000011
