17
0 2
C        -3.038518   -0.418864   -0.141486
C        -1.838551    0.453372   -0.073128
C        -0.533231   -0.312652    0.131958
C         0.694385    0.599452    0.158030
C         1.966116   -0.150488    0.408753
C         2.997348   -0.203820   -0.421790
H        -4.031750   -0.012478   -0.000957
H        -2.953014   -1.453504   -0.450861
H        -1.961561    1.195916    0.724953
H        -1.756315    1.046263   -0.999413
H        -0.415044   -1.051456   -0.667262
H        -0.590052   -0.877584    1.068232
H         0.558201    1.350266    0.945920
H         0.770653    1.146124   -0.787047
H         3.888982   -0.772145   -0.186050
H         2.987013    0.323738   -1.370304
H         2.017592   -0.697137    1.348769
