35
0 2
C         0.358504   -0.700676    0.625255
C         1.309711   -1.488528   -0.243046
C         2.119115   -0.586746   -1.210004
H         0.747513   -2.216922   -0.835656
H         1.999976   -2.048985    0.393058
C         2.970518    0.434320   -0.529224
H         1.429585   -0.095545   -1.901905
H         2.748069   -1.251356   -1.813988
C         2.473345    1.825923   -0.335658
C         4.142706   -0.018859    0.272730
N         0.554734   -0.445877    1.852491
C        -0.905773   -0.206571   -0.042818
H        -0.685873   -0.047053   -1.106300
C        -1.426742    1.105206    0.543295
C        -1.989075   -1.297008    0.040330
H         4.946024    0.724164    0.260345
H         4.548476   -0.964396   -0.096363
H         3.884679   -0.170024    1.332942
H         3.298260    2.545098   -0.317062
H         1.938174    1.936802    0.619369
H         1.780678    2.123231   -1.126783
H        -1.626760   -2.230084   -0.401063
C        -3.279034   -0.855637   -0.648087
H        -2.184583   -1.501444    1.098338
H        -0.658933    1.878019    0.456108
H        -1.598753    0.963893    1.613121
C        -2.714613    1.549222   -0.147222
H        -2.504562    1.780184   -1.199045
H        -3.080285    2.474481    0.306025
C        -3.789720    0.466099   -0.077726
H        -4.688903    0.786301   -0.611171
H        -4.080984    0.316289    0.968421
H        -4.040150   -1.634036   -0.546090
H        -3.093232   -0.738547   -1.722602
H         1.424806   -0.869393    2.175912
