25
0 1
C        -1.813079   -1.618312   -0.247366
C        -3.001168   -0.964642    0.433446
C        -3.077762    0.455421   -0.105501
C        -1.750493    1.114156   -0.096980
C        -0.583533   -0.812024   -0.090517
H        -1.615985   -2.615418    0.156379
H        -2.025309   -1.737631   -1.315595
H        -2.844793   -0.947924    1.515144
H        -3.924421   -1.512852    0.234670
H        -3.437347    0.431502   -1.139668
H        -3.783227    1.064221    0.463151
C         0.644504   -0.784759    0.021963
C        -1.128625    2.168362   -0.119200
H        -0.899360    3.203062   -0.146364
C         1.865023   -1.622042    0.143531
H         1.725678   -2.559055   -0.400995
C         3.083727   -0.859740   -0.356791
H         3.053098   -0.781902   -1.446522
H         4.012765   -1.362536   -0.082475
C         3.009825    0.523761    0.260768
H         3.212657    0.469819    1.334728
H         3.721725    1.224382   -0.175753
C         1.642498    1.098450    0.102597
N         1.064806    2.116163    0.018390
H         2.005377   -1.880594    1.198873
