28
0 1
C         2.890504    0.290101   -0.237477
C         2.016332    1.099158    0.745281
C         0.589101    0.824801    0.385144
C         0.170435   -0.593242    0.266321
C         0.986000   -1.335543   -0.757088
C         2.465494   -1.179834   -0.363140
H         2.225012    0.769869    1.769026
H         2.258140    2.162655    0.677614
H         2.819897    0.763180   -1.223001
H         3.939269    0.345893    0.066464
H         0.713890   -2.391935   -0.802345
H         0.844302   -0.911519   -1.761523
H         2.626986   -1.688015    0.593602
H         3.102925   -1.677641   -1.099117
C        -2.601883    0.259645   -0.665209
C        -1.466302    1.235848   -1.091061
C        -1.072436   -0.857161    0.694879
C        -2.168425   -1.182573   -0.252297
H        -3.290424    0.189245   -1.512348
H        -1.970585    2.153335   -1.403412
H        -1.022136    0.828071   -2.009574
H        -3.013563   -1.720990    0.181190
H        -1.788948   -1.733471   -1.113494
H        -3.159531    0.693942    0.164794
O        -1.584363   -0.251337    1.810304
H        -0.868301    0.193418    2.277485
C        -0.264757    1.658921   -0.224155
H        -0.006420    2.713946   -0.294978
