18
0 1
C        -3.551814   -0.563157    0.028392
C        -2.247905   -0.738748    0.199358
C        -1.295544    0.387288   -0.024427
O        -1.702147    1.515887   -0.209156
C         0.173293    0.108144   -0.002026
C         0.702478   -1.176693   -0.110663
C         2.076591   -1.370736   -0.111441
C         2.931188   -0.284663    0.008454
C         2.410935    1.000142    0.117736
C         1.041283    1.195046    0.105142
H         0.614879    2.187259    0.176548
H         3.077274    1.849126    0.209726
H         4.003729   -0.437863    0.014589
H         2.479369   -2.371651   -0.206236
H         0.051268   -2.034010   -0.216566
H        -1.859065   -1.696427    0.519839
H        -3.933449    0.401437   -0.285852
H        -4.259864   -1.364699    0.198044
