14
0 1
O        -2.417453   -0.778002    0.053560
C        -2.028048    0.334111   -0.182519
C        -0.592903    0.771521   -0.113440
C         0.382002   -0.338439    0.265235
C         1.787574    0.164953    0.384861
C         2.807028   -0.246025   -0.354955
H        -2.747607    1.126457   -0.476136
H         0.060754   -0.776631    1.214887
H         0.330111   -1.140155   -0.474358
H        -0.545706    1.607132    0.596990
H        -0.335744    1.211475   -1.084731
H         1.959080    0.929997    1.140254
H         2.680957   -1.007674   -1.117698
H         3.803871    0.156684   -0.222774
