44
0 1
C         2.587148   -0.526237   -0.320022
C         1.300888   -1.250932   -0.062149
C        -1.369120    1.611448    0.148653
C         2.271065    0.873519   -0.871063
H         3.161150   -0.419429    0.609141
C         1.148851    1.604500   -0.112585
H         3.187953    1.463953   -0.843049
H         2.000554    0.766975   -1.924275
C        -0.214836    1.451224   -0.792028
H         1.092689    1.209971    0.910944
C         0.732133   -1.483719    1.123520
C        -0.723126   -1.700606    1.200389
C        -2.542671    0.980720    0.102279
C        -1.535789   -2.180273    0.266560
C         1.415695   -1.315810    2.453643
H         1.206654   -2.179101    3.090513
H         1.035245   -0.434117    2.979773
H         2.495528   -1.218105    2.367016
H        -0.264116    2.224377   -1.565859
H        -0.281223    0.501090   -1.316271
C        -3.010718   -1.965100    0.324828
H        -3.581137   -2.882599    0.184653
H        -3.299343   -1.518312    1.277916
C        -2.865330    0.066812   -1.042611
O         3.396745   -1.165982   -1.289359
O         1.387568    3.003073   -0.020537
O        -2.727677    0.396357   -2.187071
O        -3.431459   -1.144743   -0.785357
C         3.945570   -2.385901   -0.845602
H         3.164857   -3.107982   -0.581012
H         4.540810   -2.786065   -1.664687
H         4.594371   -2.233762    0.026947
C         2.332773    3.362624    0.956044
H         2.409162    4.448963    0.946645
H         2.014559    3.034095    1.954565
H         3.324068    2.940754    0.750778
C        -3.656409    1.261643    1.075682
H        -4.526313    1.671578    0.555416
H        -3.332825    1.990792    1.818924
H        -3.997028    0.368082    1.601912
H        -1.151117   -2.624411   -0.646648
H        -1.180882   -1.279354    2.094440
H         0.704994   -1.396478   -0.957378
H        -1.216772    2.325964    0.954959
