23
-1 1
C         1.092843    1.390814   -0.207725
N         2.308843    0.865587    0.261595
C         2.563479   -0.461604    0.369642
N         1.705393   -1.356335    0.027498
C         0.486861   -0.930385   -0.438877
C         0.116185    0.404054   -0.595451
N        -1.117055    0.750818   -1.061192
C        -2.696413    0.340552    0.209729
O        -4.105295    0.150297    1.438136
H        -3.736689    0.181683    2.324908
O        -3.081789   -0.811853   -0.447627
H        -1.943049    0.286072    0.980080
O         0.961785    2.616732   -0.251263
N         3.808234   -0.816214    0.921691
H         4.590689   -0.400872    0.429997
H         3.891363   -1.824210    0.914063
H         2.954350    1.547848    0.632135
H        -1.144807    1.765373   -1.119547
N        -0.378560   -1.927177   -0.838461
H        -0.219452   -2.814357   -0.388609
H        -1.351386   -1.641997   -0.906380
H        -3.808074   -1.102650    0.132109
H        -3.096253    1.284363   -0.114540
