13
0 1
C        -0.071466    1.069555    0.663439
C        -0.071466    1.069555   -0.663439
C        -0.071466   -0.328718   -1.227620
H        -1.061072   -0.573281   -1.631641
H         0.639964   -0.458095   -2.046842
C        -0.071466   -0.328718    1.227620
H        -1.061072   -0.573281    1.631641
C         0.277507   -1.196683    0.000000
H        -0.238035   -2.157668    0.000000
H         1.350331   -1.402039    0.000000
H         0.639964   -0.458095    2.046842
H        -0.109964    1.956256    1.284651
H        -0.109964    1.956256   -1.284651
