32
1 1
C        -1.896755    1.172722    0.166910
N        -0.899292    0.616958   -0.398319
N         0.193609    1.111172   -0.856699
C         1.319321    0.633203   -0.333724
C         2.538919    0.915800   -1.019745
C         1.329555   -0.211334    0.820603
C         3.706142    0.408835   -0.545801
H         2.490806    1.525751   -1.912384
C         2.566595   -0.674440    1.311262
H         0.461624   -0.225282    1.463180
C         3.718603   -0.383720    0.633943
H         4.637653    0.610658   -1.058426
H         2.596089   -1.256938    2.222870
H         4.667369   -0.745352    1.011528
C        -3.176584    0.430165    0.380815
C        -1.767211    2.580328    0.662980
H        -1.309323    3.201149   -0.110633
H        -2.738564    2.986839    0.937384
H        -1.117643    2.618070    1.541133
C        -0.891295   -1.595833   -0.683018
C         0.348571   -1.984872   -0.227560
H        -0.993298   -1.364390   -1.737724
H         1.175744   -2.084807   -0.916610
H         0.422129   -2.536114    0.701831
C        -2.162312   -1.895929    0.048485
C        -3.300219   -0.933701   -0.284145
H        -3.316636    0.344162    1.465827
H        -3.982923    1.089530    0.045030
H        -3.364213   -0.811791   -1.369283
H        -4.247886   -1.372619    0.030348
H        -2.461233   -2.908696   -0.242450
H        -1.979910   -1.934432    1.127476
