59
0 1
C        -0.639472   -1.701097   -0.463042
C         0.422831    1.532521    0.335071
C        -1.935844   -1.866879   -0.207269
C         0.354941   -1.795463    0.613274
C        -0.624395    1.938650   -0.397371
C         1.830257    1.964438    0.226814
C        -1.981361    1.401399   -0.206584
C        -2.597549    1.026394    0.917057
C        -4.006472    0.477196    0.944599
C        -2.003408    1.142119    2.293078
C        -3.015110   -1.798786   -1.239710
H        -2.786683    1.372022    3.020568
H        -1.546731    0.194753    2.598036
H        -1.239552    1.916390    2.347969
C        -4.699511    0.027358   -0.349062
H        -4.623910    1.248732    1.422000
H        -4.024680   -0.360296    1.654423
C        -4.414462   -1.431073   -0.738782
H        -2.706427   -1.133378   -2.050978
H        -3.087773   -2.798010   -1.687511
C        -6.212227    0.203440   -0.190810
H        -4.384829    0.671562   -1.175533
H        -5.118541   -1.699133   -1.532076
H        -4.668206   -2.074185    0.113344
C        -0.521107    2.938383   -1.519937
H         0.421170    3.481863   -1.498181
H        -0.596917    2.438753   -2.491242
H        -1.345077    3.654085   -1.462788
H        -6.589511   -0.404740    0.637377
H        -6.467935    1.244365    0.018716
H        -6.745230   -0.099544   -1.094874
C         2.436369    2.380277    1.541730
H         1.930020    3.267252    1.932988
H         2.298120    1.588211    2.284570
H         3.500579    2.601657    1.476538
C         2.483893    1.927697   -0.936841
C         3.898121    2.329752   -1.215296
H         3.929772    3.112090   -1.979782
H         4.423104    2.706077   -0.337979
H         4.466536    1.483756   -1.613988
H         1.942387    1.542408   -1.795243
C         1.797412   -1.708641    0.239200
O         0.060517   -1.931526    1.789123
C         2.792499   -1.846007    1.114763
C         2.390244   -1.458760   -1.118245
H         2.666723   -2.026964    2.173630
C         4.130117   -1.706432    0.455913
N         3.741954   -1.478435   -0.920402
H         4.383871   -1.326497   -1.680578
O         1.833983   -1.274572   -2.180952
C         4.976744   -0.579091    1.040699
H         5.916834   -0.481746    0.494187
H         5.214183   -0.784822    2.086275
H         4.437514    0.365506    0.979487
H         4.676083   -2.654553    0.546450
H        -2.538057    1.317333   -1.135330
H         0.235896    0.821849    1.131981
H        -0.272236   -1.465475   -1.454158
H        -2.225245   -2.105861    0.813659
