64
1 1
C         0.935413   -0.438753   -0.966781
C         1.371574    0.087307    1.590542
C         2.869076    0.058895    1.267172
C         3.236928   -0.832556    0.083775
C         2.456765   -0.385107   -1.149664
H         3.206536    1.070332    1.040189
H         3.398203   -0.270971    2.163559
H         2.986440   -1.870370    0.315353
H         2.759420    0.633589   -1.392754
H         2.711928   -1.016896   -2.002525
N         0.603194    0.231986    0.321968
O        -0.539869    0.776931    0.412814
C         0.259467    0.339182   -2.093249
H         0.611368   -0.057429   -3.045959
H        -0.824790    0.239856   -2.063392
H         0.516139    1.397699   -2.046260
C         0.418274   -1.886887   -0.967628
H         0.921325   -2.520535   -0.240281
H         0.595571   -2.309691   -1.957445
H        -0.652955   -1.923112   -0.777520
C         1.074366    1.301138    2.469507
H         0.049650    1.299203    2.839526
H         1.744291    1.277407    3.329457
H         1.250544    2.228764    1.924572
C         0.910825   -1.191017    2.310144
H         1.232526   -2.099602    1.805577
H        -0.176283   -1.218394    2.408409
H         1.331181   -1.195408    3.316514
C        -2.781130   -0.158091    0.948389
H        -2.728499   -0.171154    2.041629
H        -1.458017    0.060164    0.724598
C        -3.000123   -1.433077    0.280027
C        -3.443461   -1.484377   -1.045824
C        -2.722031   -2.617221    0.971382
C        -3.613765   -2.709615   -1.662398
H        -3.663045   -0.563571   -1.570093
C        -2.894419   -3.839396    0.346226
H        -2.387904   -2.577397    2.002157
C        -3.337812   -3.885728   -0.970204
H        -3.967780   -2.754532   -2.684453
H        -2.693139   -4.756513    0.884759
O        -3.327865    0.917513    0.401819
C        -3.358896    2.133954    1.195192
H        -2.420611    2.204446    1.751167
H        -4.191918    2.038954    1.895434
H        -3.476333   -4.842497   -1.458176
C        -3.535394    3.307100    0.263135
H        -3.686330    4.194831    0.885674
H        -4.458726    3.169450   -0.307491
C        -2.355399    3.526914   -0.679105
H        -1.441480    3.648198   -0.087139
H        -2.208370    2.631835   -1.289013
C        -2.552336    4.739582   -1.580169
H        -2.670338    5.653881   -0.993756
H        -1.699405    4.881095   -2.245725
H        -3.443655    4.627980   -2.202310
N         4.674113   -0.830782   -0.158231
C         5.388586    0.286252   -0.487444
C         6.866754    0.084574   -0.699889
H         7.407315    0.725215   -0.002643
H         7.193289   -0.946799   -0.566397
H         7.119574    0.413558   -1.708132
O         4.861015    1.377505   -0.601123
H         5.167309   -1.704045   -0.080154
