35
0 1
C         0.181132    1.384768    1.357090
N        -0.291005    0.054311    1.020510
C         0.494250   -1.097449    1.423607
C         1.501133   -1.623810    0.386466
C         2.887805   -1.023168    0.469667
C         2.429823    0.855324   -0.585826
C         1.164848    1.546453   -0.996245
C         0.472968    2.284980    0.145372
C         3.762328   -0.918410   -0.645896
C         3.232064    0.062771   -1.444975
H         2.936838    1.281126    0.270461
H         3.330515   -1.204006    1.457482
C        -1.511431   -0.126488    0.392088
C        -1.867094   -1.362589   -0.175324
C        -3.095769   -1.537941   -0.790373
C        -4.011331   -0.498948   -0.875523
C        -3.669276    0.727389   -0.324043
C        -2.446448    0.917756    0.297928
H        -0.522973    1.893670    2.027739
H         1.099069    1.249760    1.927115
H         1.028111   -0.837985    2.342287
H        -0.196481   -1.897600    1.696948
H         1.095771   -1.516143   -0.620124
H         1.613362   -2.703486    0.564521
H         1.405562    2.261667   -1.794486
H         0.471887    0.826754   -1.440346
H         1.097555    3.115563    0.490467
H        -0.449362    2.727961   -0.232838
H         4.718050   -1.425000   -0.747114
H         3.331123    0.203994   -2.517771
H        -1.175297   -2.192346   -0.152754
H        -3.333166   -2.505448   -1.217679
H        -4.967573   -0.640838   -1.362332
H        -4.367395    1.555421   -0.370080
H        -2.228574    1.882931    0.730856
