55
0 1
C         1.290956   -3.097931   -0.357344
C         1.621286   -2.751874   -1.692983
C         2.173558   -1.538190   -1.940145
N         2.635907   -0.742598   -0.935603
C         2.582653   -1.183779    0.351835
C         1.992997   -2.362008    0.670270
C         1.870758   -2.838574    2.072957
O         0.954431   -3.567736    2.399423
N         2.799374   -2.383342    2.963750
C         2.817785    0.686593   -1.201241
C         1.554933    1.498075   -0.885924
C         2.158700    2.858834   -0.610966
C         3.423347    2.493946    0.158552
O         3.827371    1.206287   -0.380467
H         3.073983    0.774826   -2.261313
C         4.565492    3.470147    0.040944
H         3.148425    2.354000    1.209481
H         4.257809    4.438946    0.439556
H         4.856065    3.595190   -1.003999
H         5.432851    3.122380    0.603590
O         1.347858    3.702654    0.167999
H         2.413704    3.335900   -1.567092
O         0.594222    1.515029   -1.882494
H         1.140173    1.125912    0.061040
H         0.085625    0.665082   -1.813137
H         0.495741    3.790822   -0.272227
H         3.698564   -2.057925    2.651437
H         2.738087   -2.753702    3.899548
H         2.294232   -1.148423   -2.940806
H         1.291448   -3.356962   -2.524576
H         3.027996   -0.517933    1.077369
H        -0.083849   -2.522425   -0.311722
H         0.973378   -4.104269   -0.112295
C        -4.355977    0.735828   -0.042480
C        -4.267062    1.919824    0.683776
C        -3.122125    2.183661    1.411072
C        -2.054995    1.281544    1.442311
C        -2.139166    0.103707    0.735777
C        -3.288399   -0.190496   -0.029589
C        -3.372745   -1.393723   -0.847677
C        -2.190492   -2.335543   -0.879567
C        -0.892069   -1.585253   -0.581758
H        -2.158889   -2.801032   -1.864002
H        -2.374043   -3.113645   -0.130017
C        -1.008264   -0.889462    0.776456
H        -1.197350   -1.634175    1.556425
H        -0.078014   -0.383229    1.033007
H        -5.098327    2.614227    0.652420
H        -1.177339    1.530422    2.024514
O        -4.377576   -1.660251   -1.507677
O        -0.390301   -0.911327   -1.563547
O        -2.972857    3.326447    2.124748
H        -3.758776    3.874246    2.038904
O        -5.466226    0.515836   -0.743857
H        -5.350869   -0.354144   -1.201808
