13
0 1
C        -0.285603    0.383929   -0.658697
C         1.048336    0.027845   -0.005033
O         1.491756   -1.181264   -0.397078
O         1.660603    0.737222    0.741152
C        -1.311899   -0.707010   -0.426580
H        -0.096088    0.400766   -1.738681
N        -0.816255    1.660898   -0.246853
H         2.339468   -1.340862    0.041317
H        -0.119545    2.389925   -0.339623
H        -1.079345    1.627333    0.732084
H        -2.250406   -0.438793   -0.910782
F        -1.560957   -0.807101    0.944686
H        -0.955563   -1.676988   -0.769256
