15
0 2
N         0.000000    0.311563    0.000004
C        -1.196352   -0.480300    0.000027
C         1.196352   -0.480300   -0.000024
C        -2.447818    0.380566   -0.000010
H         1.190494   -1.149548    0.876127
H        -1.190493   -1.149474    0.876234
H        -1.190490   -1.149551   -0.876122
C         2.447818    0.380566    0.000005
H         1.190489   -1.149477   -0.876229
H        -2.469463    1.022447    0.882100
H         2.469472    1.022369    0.882172
H        -3.348199   -0.237857    0.000020
H        -2.469468    1.022366   -0.882179
H         2.469459    1.022444   -0.882107
H         3.348199   -0.237857   -0.000028
