37
0 1
C        -0.660181    0.075909    1.200444
H         0.063964    0.401587    1.954411
B        -0.123083    0.241195   -0.274226
C        -1.944047    0.903890    1.383682
H        -1.664588    1.962581    1.368792
H        -2.370367    0.721053    2.376597
C        -0.855888   -1.449134    1.395598
H         0.137972   -1.909181    1.421986
C         0.279684    2.284530   -0.812443
H         0.546136    1.817213   -1.750663
H        -0.593877    2.921056   -0.824003
C         1.198542    2.420273    0.184960
C         2.351497    1.602187    0.362716
H         1.005259    3.159984    0.960243
H        -1.303599   -1.643322    2.376700
H         3.186252    1.919642    0.968514
C         2.301485    0.305263   -0.050734
O         1.229945   -0.254274   -0.559970
O         3.359522   -0.488075    0.086219
C         3.174352   -1.892836   -0.101846
H         2.470061   -2.291311    0.629230
H         2.812126   -2.104529   -1.106996
H         4.156987   -2.332117    0.047798
C        -1.689067   -2.150568    0.310480
H        -1.540791   -3.231509    0.396368
H        -2.749833   -1.989456    0.500098
C        -1.213128   -0.186125   -1.329697
H        -0.879016   -0.032360   -2.361269
C        -1.351896   -1.717768   -1.124345
H        -0.404928   -2.180345   -1.421019
H        -2.113034   -2.110941   -1.807554
C        -2.527111    0.588245   -1.125605
H        -3.315075    0.154806   -1.752088
H        -2.379170    1.605820   -1.498986
C        -3.033232    0.662888    0.326037
H        -3.775344    1.463944    0.397021
H        -3.575507   -0.250329    0.570476
