25
0 1
C        -2.884500   -1.324864    0.041939
C        -1.526500   -1.584368    0.093570
C        -0.594518   -0.550381    0.029166
C        -1.037959    0.764916   -0.083123
C        -2.407942    1.018268   -0.130933
C        -3.329183   -0.012621   -0.071825
H        -3.595250   -2.140809    0.091044
H        -1.176693   -2.607769    0.183666
H        -2.750730    2.044306   -0.213205
H        -4.389989    0.203461   -0.109917
C         1.284803    1.488166    0.464530
H         2.042633    2.250210    0.278706
H         1.175937    1.392231    1.556332
N         1.741227    0.239001   -0.120159
C        -0.041394    1.892615   -0.154380
H         0.125769    2.169475   -1.200145
H        -0.438522    2.774228    0.355129
C         0.873134   -0.896897    0.095823
H         1.091169   -1.370349    1.068460
H         1.096006   -1.644670   -0.669777
C         3.099823    0.001252   -0.150240
C         3.721633   -1.181733   -0.134484
H         3.687944    0.911125   -0.221354
H         3.201027   -2.125446   -0.052489
H         4.797725   -1.215122   -0.225596
