47
0 2
O         1.138493   -0.526179   -0.526241
C        -0.172127    0.080708   -0.507390
C         0.038458    1.559178   -0.112569
C         1.539989    1.757178   -0.339668
C         2.078874    0.374950    0.039351
C        -1.038508   -0.710009    0.428945
H        -0.553994    0.018685   -1.530396
H        -0.769565   -0.613053    1.476998
H        -1.196941   -1.739294    0.114120
O        -0.194754    1.815266    1.254191
O         2.086705    2.812128    0.385673
N         3.384297    0.063416   -0.461950
H         2.135350    0.271816    1.126472
C         4.442513   -0.400810    0.285684
C         3.828122    0.096311   -1.767310
H         1.737417    1.937327   -1.399120
H        -0.566245    2.226852   -0.728538
H        -1.125641    2.079975    1.350366
H         1.572337    2.878131    1.202746
O        -2.828087    2.339686    0.761155
C        -3.601681    1.594883    0.199016
O        -4.424018    2.067751   -0.727755
C        -3.597446    0.128393    0.497605
C        -4.290394   -0.869343   -0.413131
H        -2.322785   -0.199365    0.424386
H        -3.772587   -0.043431    1.558458
C        -5.798880   -0.763247   -0.371261
H        -3.977494   -1.877552   -0.137326
H        -3.991414   -0.707027   -1.453118
S        -6.637113   -2.164956    0.253089
C        -8.345675   -1.580950    0.144498
H        -8.477057   -0.692868    0.757946
H        -8.973003   -2.388767    0.516316
H        -8.599104   -1.356331   -0.888704
O        -6.379376    0.240016   -0.739094
N         5.061387   -0.289547   -1.906651
C         5.467911   -0.604794   -0.624274
C         6.678939   -1.075819   -0.097370
N         6.762606   -1.296052    1.216895
C         5.687910   -1.059587    1.975932
N         4.497771   -0.614465    1.598930
N         7.754100   -1.318677   -0.874349
H         7.722408   -1.111769   -1.857473
H         8.612014   -1.611468   -0.439824
H         5.812558   -1.258294    3.035264
H         3.181224    0.405362   -2.573578
H        -5.174525    1.456051   -0.906312
