47
0 1
C        -3.063485   -1.324088   -0.548451
C        -2.015348   -2.315183   -1.088923
C        -0.680200   -1.664720   -1.259534
C        -1.842403    1.252671    0.769236
C        -2.824140   -1.007410    0.936827
H        -2.357921   -2.697731   -2.056321
H        -1.941120   -3.175474   -0.415367
H        -2.944011   -0.396247   -1.118325
H        -3.504917   -1.609611    1.547325
C        -1.879911    2.158558   -0.203720
C         0.395965   -1.871020   -0.499776
C         1.649072   -1.154441   -0.660554
C         2.697348   -1.286639    0.162034
C        -0.692555    2.857756   -0.742855
C        -4.483971   -1.833383   -0.778310
H        -4.694546   -1.959937   -1.842739
H        -5.223389   -1.138323   -0.372060
H        -4.633486   -2.800273   -0.288372
O        -0.813923    3.610488   -1.687200
C        -3.007371    0.476016    1.299654
H        -3.923760    0.846054    0.827472
H        -1.811235   -1.301342    1.228785
C         3.971822   -0.576141    0.059479
C         4.910524   -0.816123    0.985811
H         4.658246   -1.535474    1.762006
C         4.141795    0.380492   -1.087429
H         5.118982    0.856945   -1.090036
H         3.385980    1.169218   -1.050829
H         4.019077   -0.137554   -2.042157
C         6.277883   -0.225445    1.102946
H         6.395713    0.280806    2.065955
H         6.506058    0.493903    0.318410
H         7.039028   -1.010995    1.068943
C         0.657670    2.618546   -0.108203
H         0.653626    2.946258    0.933957
H         1.406772    3.182911   -0.659569
H         0.915366    1.557691   -0.115851
C        -3.121527    0.661191    2.814093
H        -3.237391    1.713790    3.079037
H        -3.982063    0.113355    3.204102
H        -2.227981    0.282913    3.319122
H        -0.886012    1.000805    1.223485
H        -2.813925    2.423653   -0.690066
H         2.612340   -1.980793    0.995345
H         1.702765   -0.470009   -1.502319
H        -0.617515   -0.917537   -2.049324
H         0.349692   -2.604725    0.303053
