39
0 2
N         0.456163    1.462852    1.011592
C         1.826428    1.205117    1.356838
H        -0.266996    0.868230    1.406487
C         2.409026    0.057524    0.530642
H         2.416966    2.109606    1.205576
H         1.884358    0.933250    2.412490
O         1.710662   -0.775317   -0.013701
N         3.760150    0.015992    0.487983
H         4.322833    0.774281    0.846678
C         4.442694   -1.002612   -0.263978
C         5.921594   -0.737771   -0.234144
H         4.250974   -1.999659    0.141642
H         4.106887   -1.024771   -1.305101
O         6.442107    0.197407    0.311665
O         6.604520   -1.677736   -0.898968
H         7.544215   -1.450835   -0.852933
C         0.181872    2.017514   -0.196657
C        -1.273594    1.881811   -0.634202
O         1.021459    2.554413   -0.893864
N        -1.575971    0.516034   -1.021610
H        -1.429572    2.535320   -1.488897
H        -1.949149    2.169169    0.172528
H        -1.453418    0.250045   -1.984660
C        -1.864610   -0.442885   -0.117160
C        -2.219479   -1.771460   -0.627917
O        -1.914026   -0.186161    1.095268
N        -5.190048   -0.275817   -1.778509
H        -2.191954   -1.934869   -1.699664
H        -1.853531   -2.587526   -0.015116
C        -5.198652   -0.307811   -0.516142
C        -4.750211   -1.532061    0.225237
O        -5.570156    0.722067    0.269299
N        -4.612667   -1.329945    1.629595
H        -3.586891   -1.775017   -0.300338
H        -5.339255   -2.406169   -0.042127
H        -3.705753   -0.923267    1.862962
H        -4.764825   -2.167147    2.173246
H        -5.518355    0.404524    1.189834
H        -5.536874    0.619441   -2.118662
