20
1 1
C         2.525899    0.502308   -0.000005
C         1.127332    0.298608   -0.000003
C         0.302629    1.438687   -0.000013
C         0.570934   -0.996223    0.000008
C        -1.069254    1.290502   -0.000009
H         0.738972    2.430611   -0.000022
C        -0.796716   -1.142156    0.000011
H         1.216400   -1.864676    0.000016
C        -1.581364    0.004747    0.000002
H        -1.741783    2.136842   -0.000015
H        -1.272276   -2.113075    0.000019
O         3.339615   -0.463985   -0.000010
C         4.784286   -0.247612    0.000004
H         4.997190    0.820392   -0.000140
H         5.163712   -0.732829    0.895036
H         5.163757   -0.733077   -0.894873
N        -3.064592   -0.160161    0.000005
O        -3.483185   -1.294343   -0.000008
O        -3.722298    0.854197    0.000015
H         2.930642    1.516808   -0.000015
