43
0 1
C        -0.778080   -1.839727    0.141397
H        -0.911309   -2.860510   -0.219439
H        -0.964670   -1.854478    1.235592
C        -1.792677   -0.924185   -0.508152
C        -0.047928    0.837823   -0.656265
H         0.324114    0.737945   -1.680724
H         0.090140    1.875079   -0.369685
C         0.815335   -0.053436    0.241047
H         0.481712    0.097312    1.287859
N         0.586505   -1.440421   -0.141529
C        -2.494671    1.412135   -0.330044
C        -3.044276   -1.411670   -0.845061
H        -3.461927   -1.053262   -1.769202
H        -3.296605   -2.442628   -0.610490
C        -3.754901    1.095140    0.197643
H        -4.063698    1.761675    1.005762
C        -4.555215   -0.027634    0.004705
C        -1.507467    0.441728   -0.596470
C        -5.515988   -0.450902    1.086290
H        -5.667156   -1.532026    1.065445
H        -5.148398   -0.184946    2.078505
H        -6.499015    0.011601    0.945641
H        -4.916486   -0.233838   -0.986454
C         2.283793    0.328050    0.179080
C         1.552636   -2.353173    0.437339
H         1.237068   -3.374773    0.215975
H         1.593356   -2.254502    1.537975
C         2.917358   -2.081415   -0.164508
H         2.896668   -2.359577   -1.222553
C         3.279745   -0.626963   -0.025099
H         3.677212   -2.699603    0.320630
C         4.613992   -0.226911   -0.071014
H         5.381094   -0.977685   -0.229633
C         2.657003    1.659024    0.367861
H         1.897528    2.407345    0.559966
C         4.972380    1.099249    0.093252
H         6.014995    1.391070    0.055680
C         3.984555    2.048146    0.323518
H         4.248463    3.088378    0.471441
C        -2.092500    2.870584   -0.224011
H        -1.373900    3.052205    0.580000
H        -2.966351    3.493637   -0.037548
H        -1.636936    3.219363   -1.153075
