23
0 1
C        -0.586851    0.482373    0.008587
C        -2.031675    0.040354    0.029500
C         0.386380   -0.455972   -0.096901
C         1.811071   -0.265894    0.126618
O         2.506954   -1.335870   -0.320412
O         2.354719    0.661894    0.684079
O        -2.944358    0.826465    0.094266
O        -2.196618   -1.275252   -0.016265
C        -3.552884   -1.736141    0.002904
C         3.911360   -1.304970   -0.074359
H        -4.045330   -1.416728    0.920634
H        -3.491338   -2.819456   -0.044743
H        -4.097631   -1.341474   -0.854143
H         4.301097   -2.235853   -0.478613
H         4.112789   -1.238048    0.995155
H         4.370893   -0.450996   -0.572836
N        -0.500313    1.826366    0.082448
H        -1.402776    2.274149    0.153324
C         0.605991    2.634224   -0.390996
H         0.235399    3.644056   -0.562654
H         1.428972    2.654544    0.319712
H         0.988592    2.234848   -1.335446
H         0.075596   -1.471348   -0.282989
