47
0 1
C        -3.363589    0.926032   -0.095798
C        -1.930701    1.225151   -0.542758
C        -0.950467    0.215379    0.077930
C        -1.391543   -1.234260   -0.215504
C        -3.810088   -0.507316   -0.371585
H        -1.881282    1.096270   -1.632929
H        -3.443099    1.119622    0.982795
H        -4.047176    1.628309   -0.583519
H        -3.788820   -0.663290   -1.458497
H        -2.859901   -1.384926    1.348501
H        -3.107707   -2.514378    0.024654
C        -2.819978   -1.483530    0.255580
C         0.514406    0.476399   -0.352821
C        -0.404833   -2.190076    0.386659
C         1.335964   -0.834403   -0.645111
C         0.894005   -1.983811    0.215049
C        -5.232043   -0.754854    0.117739
H        -5.556654   -1.774745   -0.102959
H        -5.939193   -0.067892   -0.353418
H        -5.299368   -0.610583    1.200321
C         1.263466    1.342459    0.650893
O         1.787393    2.376327    0.305193
C         1.331874    0.894082    2.091593
C         2.826993   -0.547918   -0.690810
C         3.649232   -0.926960    0.285711
H         3.227903   -1.475984    1.122409
C         5.118390   -0.665075    0.406231
H         5.323145   -0.046774    1.285659
H         5.536585   -0.153222   -0.458422
H         5.667994   -1.600651    0.544409
C         3.253731    0.251382   -1.891089
H         4.334495    0.300237   -2.003169
H         2.881395    1.277201   -1.818957
H         2.840447   -0.184243   -2.805497
C        -1.575662    2.673747   -0.216324
H        -1.576182    2.836409    0.866300
H        -0.594823    2.963345   -0.592565
H        -2.314042    3.352742   -0.649108
H         1.188909   -0.179409    2.204529
H         0.540962    1.401888    2.650579
H         2.288370    1.202186    2.510488
H         1.629991   -2.667582    0.618422
H        -0.771814   -3.039294    0.954764
H         1.044609   -1.102283   -1.669522
H         0.511503    1.054528   -1.277972
H        -1.019005    0.327694    1.166624
H        -1.371321   -1.364356   -1.308964
