36
0 1
C        -1.174394   -0.637350    0.220763
C        -0.462037    0.178453    1.275538
C        -0.488548   -1.634153   -0.587228
C         0.395739   -0.661199    2.189995
C         0.801307   -1.983132   -0.544694
C         1.450751   -1.342358    1.778473
C         1.885477   -1.430569    0.335353
H         0.133229   -0.654766    3.241985
H         2.045982   -1.886595    2.503484
C         1.054240    1.622015   -1.555342
C         0.358336    1.336716    0.635280
H        -1.223061    0.658225    1.889109
C         1.343164    0.925892   -0.444120
C        -0.504680    2.356440   -0.053974
H         0.895957    1.818519    1.460466
C        -0.085888    2.510346   -1.313487
H         1.573678    1.555119   -2.500647
H        -1.330823    2.860237    0.427554
H        -0.505824    3.182113   -2.049738
C         2.450445   -0.077739   -0.247766
C         3.138445   -0.388888   -1.580637
C         3.504717    0.478042    0.722339
H         3.073208    0.738501    1.688236
H         3.962446    1.374497    0.300536
H         4.294141   -0.259589    0.892238
H         2.434816   -0.772174   -2.321304
H         3.924345   -1.133490   -1.434908
H         3.605697    0.507336   -1.991724
C        -2.499313   -0.416243   -0.000173
C        -3.247013    0.546346    0.745077
N        -3.847604    1.321190    1.344555
C        -3.235193   -1.119696   -1.004004
N        -3.826845   -1.684957   -1.810336
H         2.723903   -2.128649    0.290803
H         1.111895   -2.743653   -1.253546
H        -1.111764   -2.146789   -1.310430
