29
0 1
O         2.821036   -0.933830    0.527642
C         3.238793   -1.782040   -0.551615
H         3.585424   -1.176654   -1.389436
H         4.054962   -2.384560   -0.162572
H         2.413188   -2.422802   -0.861931
P         1.647779    0.102911    0.378947
O         1.374017    0.906064    1.582842
O         2.030807    0.961250   -0.915592
O         0.425610   -0.826146   -0.102727
C        -0.703577   -0.239907   -0.777952
C        -1.493449    0.733443    0.126290
O        -2.850052    0.347881    0.014402
C        -2.884807   -1.070293   -0.172629
C        -1.715245   -1.329460   -1.128345
H        -2.041642   -1.211192   -2.161836
H        -1.271287   -2.317845   -1.016142
H        -0.326607    0.261571   -1.671004
H         1.478419    1.768318   -0.951542
C        -1.371996    2.195849   -0.266798
H        -1.140090    0.605985    1.155720
O        -0.025733    2.651242   -0.166195
H        -2.033050    2.799775    0.359657
H        -1.672700    2.330311   -1.306650
H         0.292145    2.504324    0.739051
C        -2.767700   -1.814694    1.147752
H        -3.847935   -1.285157   -0.636454
H        -2.889215   -2.887941    0.984297
H        -3.543113   -1.480303    1.838310
H        -1.792761   -1.656579    1.613151
