20
1 1
C        -3.801159    0.455886   -0.000036
C        -2.530765   -0.101321   -0.000010
C        -3.683913   -0.872361   -0.000050
H        -4.436696    1.327287   -0.000007
H        -4.157615   -1.841297   -0.000082
C        -1.142975    0.025334   -0.000001
C        -0.539168    1.306274    0.000026
C        -0.325022   -1.122481   -0.000020
C         0.818573    1.425851    0.000029
H        -1.160715    2.193390    0.000043
C         1.041302   -1.010528   -0.000017
H        -0.781115   -2.105188   -0.000041
C         1.627144    0.269517    0.000010
H         1.308028    2.390401    0.000049
H         1.654632   -1.899200   -0.000036
O         2.926685    0.487852    0.000014
C         3.849457   -0.607418    0.000040
H         4.835047   -0.152904    0.000096
H         3.722012   -1.213923    0.897942
H         3.722099   -1.213890   -0.897896
