22
1 1
C         2.231029    0.542456    0.000002
C         0.878537    0.234298    0.000001
C        -0.054809    1.298592   -0.000005
C         0.403863   -1.107572    0.000004
C        -1.400623    1.055001   -0.000005
H         0.301940    2.322358   -0.000008
C        -0.930933   -1.355966    0.000003
H         1.114879   -1.923464    0.000008
C        -1.853645   -0.279967   -0.000002
H        -2.100529    1.877047   -0.000008
H        -1.327499   -2.362392    0.000006
O         3.137473   -0.363212   -0.000025
C         4.541928   -0.004216    0.000043
H         4.652570    1.079786   -0.000378
H         4.979598   -0.441079    0.893822
H         4.979827   -0.441784   -0.893276
O        -3.118067   -0.627991   -0.000003
C        -4.155898    0.363359   -0.000018
H        -5.085505   -0.196431   -0.000030
H        -4.092202    0.978156    0.898496
H        -4.092179    0.978154   -0.898533
H         2.557160    1.583366    0.000002
