23
0 2
C        -0.000741   -0.613596    0.488632
H         0.325088   -0.299122    1.484572
H        -0.164122   -1.695266    0.543243
C        -1.305519    0.075525    0.110990
H        -1.138309    1.154662    0.033144
C        -3.737675    0.470855    0.735013
H        -4.480641    0.360221    1.532467
H        -1.625414   -0.268196   -0.878819
H        -3.614366    1.549968    0.596869
C        -2.420347   -0.192141    1.114163
H        -2.577898   -1.269826    1.217616
H        -2.118984    0.180111    2.099986
C         1.125446   -0.351379   -0.505038
C         3.110246    1.102969    0.579284
C         3.818648   -0.144094    0.089892
H         3.751518    1.983005    0.517820
H         2.769499    0.986080    1.608498
H         4.340110    0.050754   -0.846430
H         4.531170   -0.516054    0.827565
S         1.699458    1.384816   -0.528656
S         2.566158   -1.445587   -0.153915
S        -4.535746   -0.173064   -0.748428
H         0.784078   -0.563812   -1.518160
