32
1 1
C         1.327491   -1.283738   -0.201192
N         0.307281   -0.587807   -0.421915
N        -0.525235    0.220506   -0.722463
C        -1.851910    0.105031   -0.283061
C        -2.305125   -0.933530    0.537269
C        -2.702407    1.117998   -0.722720
C        -3.630137   -0.945376    0.914052
H        -1.630061   -1.712319    0.870638
C        -4.031030    1.092281   -0.336204
H        -2.307423    1.902131   -1.355680
C        -4.489568    0.065312    0.477594
H        -4.005795   -1.737490    1.548392
H        -4.707075    1.869310   -0.667268
H        -5.529281    0.045509    0.780024
C         2.181090   -0.978170    1.002559
C         1.665435   -2.410020   -1.129640
H         2.637417   -2.207458   -1.584414
H         1.753206   -3.336513   -0.559347
H         0.922717   -2.531247   -1.914958
C         2.891504    1.941542    0.477046
C         1.856798    2.620838    0.004091
C         3.565093    0.800858   -0.226055
C         3.581502   -0.486841    0.603576
H         1.681585   -0.229256    1.616816
H         2.261427   -1.899970    1.584747
H         4.119513   -1.271323    0.066828
H         4.132856   -0.321889    1.532466
H         3.083594    0.630664   -1.195439
H         4.601796    1.072224   -0.445312
H         3.311112    2.218778    1.442241
H         1.421527    2.392245   -0.963840
H         1.426145    3.450592    0.550858
