34
-1 1
C        -5.810851    0.210345   -0.263172
N        -4.543720    0.022550    0.401710
H        -5.863788   -0.259604   -1.263269
H        -6.020803    1.277207   -0.395604
H        -6.616649   -0.202864    0.349831
C        -3.394249    0.452743   -0.379033
C        -3.035972    1.902960   -0.080760
H        -3.916986    2.538323   -0.217388
H        -2.257532    2.279453   -0.751271
H        -2.679996    1.978516    0.944180
C        -2.266224   -0.578666   -0.172003
H        -3.625470    0.362614   -1.457914
N        -1.087231   -0.319462   -0.946897
O        -2.582813   -1.759123    0.046144
C         0.027804   -0.898462   -0.238372
C        -0.253963   -0.614360    1.338230
O        -1.403994    0.086686    1.413081
H         0.608171   -0.070015    1.761365
H        -0.288504   -1.607182    1.822847
C         1.304034   -0.261815   -0.632479
H         0.078869   -1.972300   -0.403842
O         1.462445    0.826839   -1.130295
O         2.375909   -1.030224   -0.287304
C         3.667430   -0.472798   -0.541471
C         3.870764    0.874199    0.147017
O         4.489929    1.785741   -0.321313
O         3.348538    0.882373    1.382046
N         4.673016   -1.374989   -0.072492
H         3.787200   -0.294313   -1.609281
H         3.483435    1.765786    1.750712
H         4.648298   -2.236090   -0.604403
H         4.506848   -1.600628    0.902363
H        -4.379576   -0.958915    0.615422
H        -0.930723    0.680118   -1.006624
