20
-1 1
C         3.147244    1.037445   -0.583902
C         2.564107   -0.260624   -0.054686
C         1.100476   -0.463575   -0.236856
O         3.284961   -1.041250    0.541967
C         0.260717    0.547853    0.620236
C        -1.238943    0.500465    0.519132
C        -1.782421   -0.374468   -0.306784
O        -3.170369   -0.539169   -0.531959
C        -3.995256    0.320806    0.204789
H         2.970986    1.823304    0.155855
H         4.221965    0.926581   -0.726537
H         2.664411    1.352159   -1.510716
H        -1.297562   -1.117115   -0.951853
H        -5.025704    0.072586   -0.069901
H        -3.845099    0.195834    1.283327
H        -3.782244    1.372687   -0.018996
H         0.845091   -1.485777    0.044082
H         0.834871   -0.309733   -1.288199
H         0.563921    0.404375    1.665949
H         0.597088    1.561039    0.365349
