11
0 1
C         0.017002   -1.340961    0.113846
S         1.489084   -0.305596   -0.150637
S        -1.504008   -0.318402    0.028260
C         0.688534    1.238736    0.372295
C        -0.679396    1.279110   -0.280191
H         1.320196    2.060715    0.033047
H         0.608918    1.276970    1.459111
H        -0.591310    1.453121   -1.351840
H        -1.309074    2.054063    0.158923
H         0.050857   -1.822555    1.088718
H         0.002358   -2.099646   -0.665627
