27
0 2
C        -0.108393    0.888603    1.015833
C        -1.430652    1.376399    0.467326
O        -1.954533    0.242909   -0.241322
C        -1.544674   -0.952107    0.402846
C        -0.277378   -0.577969    1.170064
H         0.348046    1.419133    1.847045
C        -1.381035    2.562042   -0.467422
H        -2.103916    1.597930    1.310335
H        -2.378046    2.767627   -0.858551
H        -0.702632    2.362026   -1.296844
H        -1.027875    3.447379    0.064891
C        -1.315200   -2.023692   -0.644319
H        -2.299406   -1.290510    1.127425
O        -0.372385   -1.600540   -1.604886
H        -2.271074   -2.281784   -1.113283
H        -0.909836   -2.912703   -0.160055
H        -0.667791   -0.748973   -1.946923
O         0.421725   -1.348562    1.776195
C         3.365575    0.041181    0.378198
C         2.434276    0.024819   -0.818308
H         2.807063   -0.123091    1.302060
H         3.892575    0.994749    0.445024
H         4.103414   -0.760086    0.292985
H         3.001746    0.127340   -1.754529
H         1.881350   -0.917277   -0.899126
H         0.736597    1.016534    0.077073
O         1.547027    1.114449   -0.862841
