27
0 1
C         4.151345   -0.102292   -0.832365
O         5.053894    0.392530    0.139913
C         4.828942   -0.124243    1.431980
H         4.912160   -1.219259    1.438389
H         3.841972    0.153058    1.817735
C         2.756932    0.409572   -0.649084
H         2.647932    1.491771   -0.633290
C         1.682132   -0.367206   -0.512244
H         1.807614   -1.448520   -0.518559
H         5.597365    0.294051    2.080254
C         0.327142    0.127148   -0.355703
H         0.208394    1.206648   -0.351220
C        -0.736676   -0.671360   -0.220737
H        -0.569244   -1.745840   -0.234828
C        -2.135003   -0.266361   -0.053536
C        -2.542831    1.070536    0.000770
C        -3.113752   -1.256316    0.058191
C        -3.877631    1.398925    0.159284
H        -1.810850    1.864109   -0.081003
C        -4.452088   -0.929138    0.217204
H        -2.816406   -2.298397    0.018735
C        -4.840210    0.401232    0.268314
H        -4.171952    2.440923    0.198767
H        -5.192388   -1.715643    0.301217
H        -5.884111    0.662013    0.392425
H         4.153830   -1.201604   -0.829901
H         4.554725    0.233473   -1.790472
