17
0 1
C        -0.132916    0.495284    1.254942
C        -0.623141    1.649136    0.707817
C        -0.132954    0.495326   -1.254922
C        -0.623163    1.649160   -0.707744
H         0.075912    0.308241   -2.298220
H        -1.066972    2.440227   -1.296375
H        -1.066933    2.440184    1.296488
H         0.075981    0.308165    2.298228
S         0.924336   -0.266683   -0.000018
C        -1.772543   -0.992009    0.687050
C        -1.772563   -0.991986   -0.687029
H        -1.256074   -1.777834    1.220977
H        -1.256111   -1.777794   -1.220997
H        -2.524502   -0.442746    1.236284
H        -2.524539   -0.442705   -1.236222
O         2.223203    0.394285   -0.000027
O         0.913990   -1.721569   -0.000042
