18
0 1
C        -2.785712   -0.500994   -0.430158
C        -0.917998    0.201177    0.805783
C         0.527067    0.652407    0.636252
C         0.645054    1.985900   -0.088877
C         1.336930   -0.421942   -0.058244
O         1.203487   -1.623864    0.543890
O         2.048293   -0.263048   -1.010331
H        -2.852375   -1.453277    0.111158
H        -3.451470    0.226099    0.052601
H        -3.110157   -0.651736   -1.458483
H         0.116532    2.761325    0.469238
H         0.209568    1.916535   -1.084838
H         1.687837    2.282529   -0.195637
H        -1.485690    0.986353    1.325086
H        -0.964431   -0.713145    1.408690
H         0.948360    0.736362    1.644856
H         1.745800   -2.251273    0.046548
O        -1.461282   -0.030470   -0.472028
