24
1 1
C         0.411975   -0.683524   -0.000060
C        -0.939787   -0.282425   -0.000026
C        -1.308112    1.078636    0.000060
C        -1.923881   -1.289429   -0.000082
C        -2.641396    1.413225    0.000089
H        -0.541309    1.842348    0.000102
C        -3.257602   -0.939561   -0.000052
H        -1.631295   -2.333235   -0.000148
C        -3.610500    0.406537    0.000033
H        -2.942722    2.452393    0.000155
H        -4.023486   -1.703513   -0.000095
O         1.364138    0.145705   -0.000017
C         2.793764   -0.310720   -0.000042
H         2.749581   -1.402704   -0.000188
H        -4.658735    0.680649    0.000056
C         3.406430    0.217287    1.272482
H         2.895472   -0.167379    2.155695
H         4.449169   -0.100633    1.318939
H         3.380991    1.307575    1.290718
C         3.406486    0.217623   -1.272399
H         2.895558   -0.166801   -2.155735
H         3.381058    1.307916   -1.290344
H         4.449223   -0.100295   -1.318901
H         0.659125   -1.747864   -0.000126
