37
0 1
O        -4.233978    0.356902    0.103768
C        -3.109672    1.208239    0.196074
C        -2.088650    0.793656   -0.827948
C        -0.729318    1.084308   -0.805768
C        -0.051404    1.710792    0.375301
O         1.366134    1.621669    0.169956
H        -0.317886    1.229437    1.318936
H        -0.286750    2.774423    0.457459
H        -2.685310    1.200617    1.208939
H        -3.490442    2.211773   -0.007222
C        -3.842601   -1.009676    0.253644
C         1.998231    0.598917    0.800378
C         2.777375   -0.246324   -0.192201
O         1.889952    0.392444    1.975021
C        -2.453603   -1.223866   -0.283738
H        -4.597685   -1.597668   -0.268950
H        -3.865475   -1.275447    1.317602
C        -1.431528   -1.581393    0.582906
C        -0.084337   -1.475285    0.254071
H        -2.357409   -1.476003   -1.333010
H        -1.678661   -1.737356    1.629080
C         0.339749   -0.922318   -0.941831
H         0.624648   -1.614467    1.058752
C         1.782956   -0.659136   -1.313486
H        -0.299507   -1.050562   -1.806839
H         1.786335    0.122069   -2.076571
H         2.187256   -1.554134   -1.801110
C         3.397512   -1.455529    0.506244
H         4.026929   -1.139265    1.338593
H         4.015860   -2.009018   -0.203878
H         2.645920   -2.137209    0.901774
C         3.891347    0.611157   -0.811435
H         4.391652    0.046655   -1.601804
H         4.639599    0.877723   -0.062106
H         3.488185    1.527814   -1.241947
H        -2.525528    0.712826   -1.819645
H        -0.254936    1.318411   -1.751268
