28
0 1
C        -0.588799   -0.767554   -1.273994
C         0.182657   -0.312204   -0.062735
C        -0.415033    0.759531    0.826360
C        -1.960267    0.625826    0.874150
C        -2.317455   -0.785943    1.304225
C        -2.404916   -1.570381    0.235416
C        -2.109528   -0.761199   -1.015920
H        -0.357367   -0.079964   -2.095919
H        -0.243578   -1.754245   -1.584671
H        -2.635346   -1.104875   -1.906820
C        -2.511721    0.645031   -0.555985
H        -2.564958   -2.640945    0.240263
H        -2.392363   -1.101129    2.337077
C         1.397587   -0.822140    0.217780
H        -3.597776    0.747097   -0.540258
H        -2.090766    1.440772   -1.172429
H        -2.367239    1.406334    1.518682
C         1.684344    2.678100   -1.522629
C         2.161242   -0.379757    1.345097
C         2.008311   -1.818383   -0.609175
N         2.767003   -0.020051    2.251815
N         2.490747   -2.616810   -1.278846
C         0.838040    2.422292   -0.571462
C         0.003694    2.149913    0.386533
H         2.746728    2.753233   -1.318355
H         1.356495    2.828138   -2.545367
H        -0.436325    2.968625    0.950497
H        -0.030696    0.616191    1.840557
