24
0 1
H         4.530002    0.123466    0.945560
N        -1.865028    1.769913    0.823917
C        -2.171054    0.771575   -0.176059
C        -2.373372   -0.620216    0.410727
O        -2.276065   -0.908215    1.571100
O        -2.711174   -1.526038   -0.531173
C        -1.104204    0.760660   -1.288742
H        -1.414814    0.060234   -2.064535
H        -1.098702    1.760414   -1.724821
C         0.275119    0.407245   -0.794845
C         0.711785   -0.917315   -0.766667
H         0.059265   -1.699350   -1.138379
C         1.963417   -1.256606   -0.283863
H         2.300766   -2.284982   -0.266226
C         2.812088   -0.262047    0.184450
C         2.402316    1.064073    0.159521
H         3.065920    1.845768    0.515261
C         1.143956    1.388638   -0.328236
H         0.833691    2.427047   -0.348019
O         4.035530   -0.645221    0.648770
H        -3.122848    1.035018   -0.648569
H        -2.845807   -2.371899   -0.081014
H        -1.006749    1.527983    1.307860
H        -2.592158    1.806651    1.528171
