58
0 2
Si        -0.727017   -0.004328   -0.273321
Si        -0.828645    2.122130    0.715434
Si         0.059982   -1.567247    1.294348
Si        -2.873045   -0.640706   -0.992872
C        -3.713784    0.806078   -1.864934
H        -4.681683    0.501141   -2.273163
H        -3.890327    1.640101   -1.181977
H        -3.108119    1.179515   -2.694378
C        -2.718447   -2.060640   -2.224206
H        -2.237074   -2.931926   -1.774488
H        -3.703251   -2.371592   -2.584631
H        -2.125291   -1.767104   -3.093776
C        -3.964514   -1.193993    0.440619
H        -4.045084   -0.420957    1.208024
H        -4.974732   -1.418784    0.086730
H        -3.573527   -2.096333    0.916121
C        -0.177875   -3.323826    0.650179
H         0.206658   -4.054602    1.367419
H        -1.233597   -3.548526    0.481744
H         0.348442   -3.478242   -0.295070
C         1.875294   -1.338558    1.743396
H         2.084907   -0.316905    2.065369
H         2.139914   -2.009826    2.565831
H         2.535531   -1.565441    0.905571
C        -0.944026   -1.359575    2.878574
H        -2.017560   -1.445633    2.701011
H        -0.664021   -2.124437    3.608664
H        -0.760181   -0.385148    3.337607
C         0.697522    2.463664    1.767870
H         0.670022    3.479531    2.172507
H         0.761092    1.773005    2.611980
H         1.613983    2.358388    1.183198
C        -0.944521    3.436480   -0.631484
H        -1.829425    3.290601   -1.255068
H        -1.006501    4.436491   -0.192758
H        -0.070576    3.415851   -1.286706
C        -2.353210    2.248506    1.818638
H        -2.391010    3.223470    2.312837
H        -3.275015    2.133711    1.243835
H        -2.350347    1.481872    2.596743
C         0.358817    0.114321   -1.868355
C         1.707567    0.666559   -1.618680
C         2.932523   -0.177557   -1.624600
H         2.686042   -1.185734   -1.267532
H         3.284318   -0.326545   -2.659770
C         4.080587    0.395102   -0.797189
H         3.738796    0.550209    0.231307
H         4.341979    1.386445   -1.185121
C         5.321309   -0.489994   -0.789429
H         5.661251   -0.646019   -1.819032
H         5.053297   -1.480287   -0.404570
C         6.458064    0.089427    0.044375
H         6.151479    0.223688    1.085147
H         7.334510   -0.562038    0.037172
H         6.766586    1.066537   -0.336974
H         0.417690   -0.881631   -2.318302
H        -0.208721    0.744861   -2.563211
H         1.819852    1.738435   -1.491183
