16
0 2
C        -0.155432   -0.641101   -0.523781
C        -1.429829   -0.227938    0.119312
O        -1.529619    0.092235    1.277145
N         0.758646   -1.176969    0.382901
H         0.279733    0.463538   -0.904765
H        -0.278754   -1.226256   -1.434313
C         2.096135   -1.458091   -0.096887
H         2.672103   -1.931060    0.697323
H         2.612570   -0.547734   -0.421678
H         2.043099   -2.150472   -0.939470
H         0.710464   -0.737896    1.293856
O        -2.450369   -0.173641   -0.747994
O         1.361982    1.666357    0.467609
O         0.884018    1.668155   -0.829227
H         0.673831    2.123909    0.973567
H        -3.216913    0.182698   -0.276943
