19
0 1
C         0.272587    0.436301   -0.493132
C         1.458203   -0.458749   -0.090540
O         2.579185    0.223737    0.121540
O         1.398465   -1.653247   -0.005949
C        -1.086187   -0.087798    0.013207
H         0.244913    0.397666   -1.586353
N         0.573657    1.816886   -0.123441
H         2.337353    1.170273    0.020348
C        -1.140502   -0.258333    1.517490
C        -1.553208   -1.318942   -0.731103
H         0.283117    2.018736    0.827506
H         0.082568    2.466194   -0.723983
H        -0.839595    0.651775    2.040813
H        -2.161601   -0.491533    1.819482
H        -2.559536   -1.583063   -0.403091
H        -0.877130   -2.150818   -0.542423
H        -1.580214   -1.122824   -1.804496
H        -0.488060   -1.075229    1.826172
F        -1.998219    0.951314   -0.314462
