20
0 2
H         0.631352    0.697623   -0.237874
C         0.847165   -1.522590   -0.227314
H         0.429012   -2.460027    0.153362
C         2.907064   -0.032251   -0.159627
H         3.817420    0.183034    0.400909
H         1.065552   -1.683402   -1.287095
H         3.198636   -0.317632   -1.172538
C         2.147609   -1.178506    0.502861
H         2.789752   -2.063841    0.507465
H         1.937196   -0.929232    1.546342
C        -0.196502   -0.431792   -0.111345
C        -2.773189    0.304859   -0.453983
C        -2.224237    0.895309    0.834084
H        -3.296520    1.057789   -1.042974
H        -3.450375   -0.522425   -0.244157
H        -1.757173    1.865570    0.661143
H        -3.003590    1.006587    1.587762
S        -1.375925   -0.327808   -1.448589
S        -0.975485   -0.255162    1.476378
S         1.938365    1.517707   -0.226564
