31
-1 1
C         0.177114   -0.160690    1.748036
N        -0.334291    1.157945    1.383286
C         0.280459    1.870915    0.528104
C         1.513216    1.394336   -0.220430
O         1.947296    2.084183   -1.123536
C         2.033691    0.049072    0.152418
C         2.951088   -0.581243   -0.889515
C        -0.279707    3.193571    0.105282
H        -1.132908    3.444997    0.732803
H        -0.595741    3.145157   -0.939088
H         0.481643    3.973479    0.169690
C         0.857201   -0.919377    0.591225
H         0.918601   -0.056591    2.544880
H        -0.647109   -0.755840    2.139055
O         1.334375   -2.107454    0.982329
C        -0.142700   -1.045105   -0.603560
O        -1.473969   -1.414956   -0.202244
H         0.224062   -1.870275   -1.212890
H        -0.199313   -0.146543   -1.219810
C        -2.540484   -0.547705   -0.329147
O        -3.645629   -1.367626   -0.546777
O        -2.820644    0.210963    0.785659
O        -2.381680    0.345386   -1.409359
O         3.470265   -1.796621   -0.411600
H         2.730573   -2.165573    0.168358
H        -4.387000   -0.913442   -0.135058
H        -2.331214   -0.192106   -2.207001
H        -2.035937    0.739525    1.059492
H         3.777316    0.095663   -1.128260
H         2.388784   -0.724977   -1.826713
H         2.608903    0.167270    1.081294
