19
0 2
C        -1.751028   -0.897076   -0.459836
N        -0.584272   -0.676683    0.381914
H        -1.668730   -1.869713   -0.947607
H        -1.893823   -0.133820   -1.242160
H        -2.646791   -0.912978    0.162830
C        -0.617542    0.624996    1.052060
C        -0.060834    1.659681    0.045578
H         0.029174    0.576714    1.931234
H        -1.627486    0.850396    1.395804
C         0.769789    0.814823   -0.944287
H         0.538782    2.418383    0.549564
H        -0.868070    2.180448   -0.471848
C         0.665906   -0.635268   -0.389353
H         1.806997    1.143769   -1.011853
H         0.348462    0.867069   -1.949448
C         1.823738   -1.003744    0.468603
H         2.834385   -0.771409    0.156444
H         1.667826   -1.636514    1.332266
H         0.589007   -1.356039   -1.215210
