19
0 1
C         0.663289    1.204430   -0.000001
C        -0.724189    1.230154   -0.000004
C        -1.408751    0.014714   -0.000002
C        -0.739530   -1.208037    0.000001
C         0.651340   -1.203065    0.000002
C         1.338048   -0.004509    0.000002
H         1.219803    2.132824   -0.000002
H         1.195670   -2.138603    0.000004
O        -2.773800    0.088285    0.000000
H        -3.156782   -0.792578   -0.000045
C        -1.511841   -2.498608    0.000006
H        -0.836823   -3.353324   -0.000010
H        -2.149609   -2.590580    0.885549
H        -2.149634   -2.590573   -0.885521
C        -1.492583    2.518909   -0.000006
H        -2.140844    2.586694    0.876289
H        -0.816379    3.373580   -0.000039
H        -2.140892    2.586662   -0.876268
Cl         3.088894   -0.014371    0.000004
