29
0 1
C        -2.192819   -1.085858   -0.385874
C         1.111565    0.800192    0.677814
C        -3.715820    2.226838    0.131723
C        -3.536909    0.908355    0.155386
C        -2.390233    0.230437   -0.432702
C        -1.008200   -1.796084   -0.962119
C        -0.172961   -2.520950    0.101104
C         0.413991   -1.581629    1.164431
H        -1.346900   -2.534529   -1.696587
H         0.631103   -3.074767   -0.391212
H        -0.394149   -1.111798    1.728008
H        -0.383699   -1.079145   -1.502725
H        -0.793689   -3.267050    0.605699
H         0.998520   -2.178273    1.873504
C         2.545949   -0.868665   -0.183513
H         2.296778   -1.472346   -1.060530
H         3.215058   -1.479946    0.429263
C         3.156194    0.484734   -0.564453
H         4.138558    0.651070   -0.119197
C         1.296825   -0.520757    0.592830
C         2.185696    1.527588   -0.015684
O         2.295431    2.723816   -0.143394
H         3.264311    0.625987   -1.640747
H         0.290220    1.301284    1.171906
H        -2.928807   -1.707912    0.122614
H        -1.655714    0.860343   -0.929836
H        -4.582137    2.690411    0.586045
H        -2.996932    2.884921   -0.344652
H        -4.275641    0.276012    0.641941
