14
0 2
C        -2.417605   -0.148814   -0.148850
H        -2.618044    0.354747   -1.087009
H        -3.247574   -0.628295    0.353799
C        -1.023712   -0.341854    0.324302
H        -1.001952   -0.374818    1.420825
C         1.372138    0.497293    0.264731
H         2.003966    1.330273   -0.065386
O         1.823397   -0.725090   -0.307671
H        -0.645670   -1.322117   -0.000744
H         1.421083    0.446897    1.360562
C        -0.057188    0.730118   -0.176847
H        -0.376530    1.713668    0.181624
H        -0.082567    0.764306   -1.270541
H         2.718314   -0.904400   -0.011776
