45
1 1
C         0.146869   -0.018567   -0.094694
C         0.198189    1.527736   -0.121246
C         0.946350    1.869533    1.169086
N         2.140697    1.021614    1.132507
H         0.356140    1.601025    2.043828
H         1.196273    2.928181    1.239974
C         1.475329   -0.611322    0.397595
C         2.569468   -0.919357   -0.625706
N         3.766454   -1.421745    0.031610
H         2.733028   -0.040255   -1.250576
H         2.172484   -1.705257   -1.270119
N         1.429819   -1.531550    1.367178
C         0.441268   -1.633016    2.431354
N         1.054699    1.942808   -1.242314
C         1.198059    3.377621   -1.496798
H         1.655823    3.878807   -0.642470
H         0.259863    3.890634   -1.730287
H        -0.546743   -1.846404    2.027465
H         4.487673   -0.720088    0.135505
H         4.173882   -2.207109   -0.457335
C        -0.318235   -0.660027   -1.404886
H        -0.593936   -0.289328    0.654730
C        -0.885684   -2.041992   -1.189639
H         0.450818   -0.702716   -2.174097
H        -1.150282   -0.082542   -1.815526
O        -0.863122   -2.761351   -2.313278
O        -1.332772   -2.447359   -0.149547
C        -1.193457    2.190985   -0.152700
C        -2.222977    1.704988    0.868333
H        -1.620762    2.076443   -1.151487
H        -1.048110    3.262769   -0.007569
C        -2.939613    0.448261    0.439506
H        -3.002205    2.465292    0.975159
H        -1.811718    1.561670    1.867998
O        -3.296443   -0.311945    1.479372
O        -3.174456    0.154403   -0.702718
H        -3.751381   -1.097641    1.138859
H        -1.304481   -3.608356   -2.148617
H         0.729048    1.499585   -2.092400
H         0.402624   -0.728507    3.046341
H         0.727833   -2.461837    3.074971
H         1.873652    3.508184   -2.341588
H         2.570130    0.857974    2.037874
H         2.822697    1.410925    0.488482
H         2.316921   -2.008381    1.496166
