24
0 1
C        -2.353986   -1.255084   -0.000088
C        -3.701673   -0.925444   -0.000035
C        -4.089333    0.405805    0.000079
C        -3.119335    1.402386    0.000139
C        -1.775814    1.070685    0.000087
C        -1.369494   -0.266343   -0.000027
H        -2.054622   -2.297295   -0.000178
H        -4.448693   -1.710027   -0.000083
H        -5.140136    0.668739    0.000120
H        -3.414914    2.444763    0.000226
H        -1.035030    1.860310    0.000131
C         0.043302   -0.676000   -0.000085
C         1.116289    0.114501    0.000008
H         1.001463    1.197822    0.000147
P         2.811427   -0.555931   -0.000085
C         3.517015    0.420719    1.404966
H         3.313816    1.490610    1.310150
H         3.094741    0.063661    2.345012
H         4.597887    0.271477    1.443221
C         3.516995    0.421063   -1.404907
H         3.094706    0.064237   -2.345035
H         3.313801    1.490931   -1.309825
H         4.597866    0.271828   -1.443217
H         0.203910   -1.751814   -0.000217
