43
0 1
C        -5.159048   -0.866899    1.045864
C        -4.006184   -1.437200    1.561183
C        -2.761811   -1.113110    1.040439
C        -2.652125   -0.198739   -0.017097
C        -3.827033    0.378567   -0.527510
C        -5.060078    0.042775   -0.000542
H        -6.128266   -1.126054    1.454781
H        -4.069391   -2.145775    2.378502
H        -1.871853   -1.570417    1.440285
H        -3.760620    1.093079   -1.334289
H        -5.953629    0.497596   -0.410907
C        -1.364930    0.182333   -0.574749
C        -1.135736    1.202542   -1.595512
O        -1.894813    1.936558   -2.155165
O         0.201872    1.165924   -1.942207
N        -0.196679   -0.434522   -0.368247
N         0.030041   -1.496037    0.320762
C         0.887042    0.444754   -0.953132
C         2.021605   -0.364463   -1.476213
C         1.378039    1.414746    0.124037
C         1.860006    2.652332   -0.289936
C         1.400760    1.084389    1.473547
C         2.366205    3.548748    0.639698
H         1.819149    2.918899   -1.338020
C         1.899872    1.987522    2.400484
H         1.011519    0.131278    1.808467
C         2.388980    3.218693    1.987090
H         2.735306    4.511689    0.308505
H         1.899399    1.728248    3.452227
H         2.778613    3.921387    2.713455
C         2.191491   -1.588658   -1.010695
C         3.404366   -2.477013   -1.070642
C         1.223237   -2.223528   -0.062808
C         3.348078   -3.274036    0.267045
H         4.315082   -1.885885   -1.169919
C         2.156975   -2.692926    1.056447
H         0.845960   -3.136425   -0.553244
H         3.180736   -4.333713    0.066678
H         4.280887   -3.198720    0.824904
H         1.686535   -3.416823    1.721625
H         2.467351   -1.831790    1.653179
H         3.360284   -3.149048   -1.930932
H         2.754655    0.161548   -2.075921
