52
0 1
C        -0.587168    2.224552   -0.220507
C         0.206700    1.313282   -1.204048
C         2.023799    0.956342    1.284023
H        -1.649239    2.160316   -0.468114
C         1.502924    1.973342   -1.717523
H         2.095300    1.236331   -2.270226
H         1.218629    2.734368   -2.452733
H         2.639804    0.615755    2.121825
H        -0.422850    1.183562   -2.090201
C         2.385912    2.652520   -0.676870
H         3.205110    3.156089   -1.199776
H         1.820371    3.451606   -0.190287
C         2.992711    1.746920    0.388040
H         3.692677    1.055576   -0.089278
H         3.604168    2.374837    1.045144
C         0.934669    1.866148    1.910134
H         0.792214    1.560352    2.951146
C        -0.458187    1.867752    1.267528
H        -0.915401    0.883661    1.425816
H        -1.084911    2.560028    1.837938
H         1.316552    2.891247    1.957283
H        -0.305453    3.269605   -0.380859
C         1.423904   -0.311837    0.631744
H         0.912033   -0.888089    1.418901
Si         2.721882   -1.609487    0.092257
C         3.341380   -1.361436   -1.667981
H         2.517843   -1.366252   -2.387399
H         3.887402   -0.425904   -1.797941
H         4.015295   -2.177861   -1.942167
C         1.966028   -3.330001    0.178147
H         2.745420   -4.082403    0.029012
H         1.505664   -3.522575    1.150471
H         1.207069   -3.491444   -0.589302
C         4.176035   -1.566057    1.281970
H         3.848427   -1.743242    2.309645
H         4.891070   -2.352057    1.024229
H         4.709028   -0.614018    1.262373
B         0.364528   -0.078402   -0.478656
C        -3.028154   -1.057174   -0.054367
C        -2.060601   -0.750869   -0.915531
C        -0.659965   -1.245178   -0.843456
C        -4.360721   -0.446971   -0.185193
O        -4.697200    0.359351   -1.017677
O        -5.197001   -0.900413    0.768253
C        -6.520875   -0.365821    0.736198
H        -7.047362   -0.833159    1.564324
H        -6.498508    0.717222    0.858217
H        -7.006280   -0.604533   -0.210200
H        -0.359153   -1.596267   -1.842605
H        -2.878983   -1.749273    0.765757
H        -2.311582   -0.049107   -1.706089
H        -0.590093   -2.094116   -0.161682
