12
1 1
N        -1.795745    0.030235   -0.000108
C        -0.598781   -0.862386    0.000062
H        -2.382667   -0.075673    0.828161
H        -2.382451   -0.075714   -0.828526
C         0.592988    0.114957    0.000028
O         0.329034    1.306170   -0.000046
N         1.813484   -0.407393    0.000076
H         2.608595    0.217562    0.000074
H         1.986514   -1.400688    0.000145
H        -1.346073    0.994573   -0.000092
H        -0.602854   -1.492257    0.887992
H        -0.602756   -1.492486   -0.887706
