27
1 1
C        -0.186931   -0.517847    0.000057
C         1.191655   -0.209312    0.000022
C         1.649863    1.123321   -0.000124
C         2.105858   -1.278997    0.000139
C         3.002827    1.368628   -0.000151
H         0.934966    1.935806   -0.000213
C         3.460420   -1.019301    0.000110
H         1.744054   -2.300907    0.000251
C         3.902716    0.299939   -0.000035
H         3.372571    2.385488   -0.000263
H         4.173419   -1.832858    0.000199
O        -1.075449    0.375587   -0.000039
C        -2.575791    0.032940   -0.000002
H         4.966905    0.503392   -0.000057
C        -2.856135   -0.744689   -1.269137
H        -2.372713   -1.723401   -1.276731
H        -3.930851   -0.917904   -1.338596
H        -2.548485   -0.182870   -2.151709
C        -3.211845    1.404159   -0.000137
H        -2.925425    1.967945    0.887786
H        -2.925424    1.967771   -0.888171
H        -4.296934    1.293928   -0.000127
C        -2.856132   -0.744438    1.269287
H        -2.372714   -1.723151    1.277071
H        -2.548475   -0.182447    2.151746
H        -3.930848   -0.917635    1.338786
H        -0.495481   -1.564274    0.000170
