31
0 1
C        -1.086380    2.422865   -0.956908
N        -0.192176    1.265578   -0.875992
C         0.762693    1.237440    0.078087
H         0.986815    2.221422    0.477854
O        -0.699881    0.129382   -1.200216
C        -1.118558   -0.593047    0.740688
C        -2.557507   -0.374908    0.532573
C        -0.365097    0.295783    1.495939
H        -0.890898    1.129138    1.950272
H         0.477067   -0.089981    2.054072
H        -0.760203   -1.590951    0.534890
C         1.948766    0.353021   -0.012231
H        -1.807296    2.395620   -0.138488
H        -0.495792    3.336991   -0.928038
H        -1.615587    2.356815   -1.904279
C         3.077029    0.724257    0.721201
C         4.227608   -0.047542    0.697926
C         4.271125   -1.202828   -0.070074
C         3.156096   -1.575181   -0.808203
C         1.997421   -0.812925   -0.777651
H         3.053781    1.632101    1.314611
H         5.092447    0.257548    1.274541
H         5.168952   -1.808344   -0.093904
H         3.183586   -2.474068   -1.412465
H         1.127249   -1.109306   -1.344691
O        -3.152676   -1.474524    0.044664
O        -3.162354    0.646023    0.770566
C        -4.544863   -1.349319   -0.243559
H        -4.856462   -2.321511   -0.616579
H        -5.101135   -1.086881    0.656328
H        -4.707985   -0.580388   -0.999033
