23
0 1
C         2.834098   -0.218360   -0.878271
O         3.754745   -0.394753    0.182001
C         3.641482    0.580115    1.194046
H         2.660763    0.552353    1.681089
H         3.803234    1.588288    0.789792
C         1.419596   -0.501339   -0.476168
H         1.249317   -1.480211   -0.036299
C         0.419755    0.361986   -0.628356
H         0.649583    1.343160   -1.039191
H         4.413637    0.364959    1.931045
C        -0.993387    0.150025   -0.281975
C        -1.519333   -1.110130    0.014215
C        -1.852535    1.248908   -0.244337
C        -2.852898   -1.258800    0.355047
H        -0.882847   -1.984831   -0.034060
C        -3.189216    1.102385    0.096555
H        -1.462610    2.232752   -0.481113
C        -3.694279   -0.153041    0.400321
H        -3.242351   -2.244585    0.579714
H        -3.836849    1.970473    0.122996
H        -4.737969   -0.272878    0.664129
H         2.914415    0.798292   -1.288688
H         3.154024   -0.920245   -1.651882
