17
0 1
C        -1.122765    0.782590    0.665872
C        -1.122765    0.782590   -0.665872
C         0.222155    0.249458   -1.123047
C         0.222155    0.249458    1.123047
C         1.126197    0.789278    0.000000
H         0.507704    0.478099   -2.148359
H         2.126289    0.347730    0.000000
H         1.199751    1.877257    0.000000
H         0.507704    0.478099    2.148359
C         0.222155   -1.270273   -0.776822
C         0.222155   -1.270273    0.776822
H         1.119929   -1.749885   -1.172362
H        -0.641864   -1.782525   -1.200646
H         1.119929   -1.749885    1.172362
H        -0.641864   -1.782525    1.200646
H        -1.956651    1.003335   -1.319501
H        -1.956651    1.003335    1.319501
