20
0 2
C        -0.185423    1.540666   -0.169841
H         0.355422    2.369660    0.310915
C        -2.512563    0.440119   -0.183571
H        -3.502096    0.552602    0.260850
H        -0.372058    1.842073   -1.203551
H        -2.590591    0.754040   -1.226241
C        -1.509532    1.314481    0.562856
H        -1.972907    2.294662    0.712171
H        -1.319429    0.899100    1.555009
C         0.722365    0.359802   -0.200432
C         2.713505   -0.550583   -0.625847
C         2.476573   -0.607460    0.880962
H         2.463217   -1.497305   -1.113362
H         3.718497   -0.243185   -0.906091
H         2.538987   -1.615086    1.291027
H         3.146295    0.055655    1.432968
S        -2.204407   -1.360619   -0.122152
O         1.798693    0.457233   -1.045097
O         1.139017   -0.123101    1.020142
H        -0.926052   -1.297517   -0.544381
