32
-1 1
C         0.959655   -0.602248   -0.224955
C         0.979663    0.808458   -0.290834
N        -0.202046    1.464139   -0.582680
N        -0.255538   -1.280166   -0.427594
C        -1.458843   -0.583790   -0.190584
C        -1.404938    0.790600   -0.236804
N        -2.546484   -1.309542    0.054470
C        -3.714093   -0.660053    0.282503
N        -3.674528    0.741710    0.286046
C        -2.565776    1.538045    0.037540
C        -0.266003   -2.723318   -0.388113
H         0.408266   -3.120810   -1.151820
H        -1.283709   -3.052311   -0.573663
H         0.044877   -3.112199    0.591260
H        -4.546060    1.214358    0.471540
O        -4.794104   -1.211764    0.494729
O        -2.638081    2.778436    0.058475
C         2.153431   -1.266807    0.012143
C         3.371609   -0.593274    0.167582
C         3.385475    0.794695    0.105535
C         2.183555    1.472146   -0.111860
C         4.635864   -1.376087    0.404111
H         5.109407   -1.109999    1.355094
H         5.379839   -1.198540   -0.379906
H         4.430192   -2.447562    0.426852
C         4.666088    1.568277    0.272658
H         5.405194    1.297957   -0.488512
H         5.130097    1.378817    1.246019
H         4.485738    2.641482    0.194238
H         2.183495    2.556827   -0.160676
H         2.153730   -2.346653    0.073452
H        -0.247541    2.452408   -0.374743
