15
0 1
C        -0.654023    0.390951    0.344167
C         0.678540    0.161465   -0.280003
C         1.791859   -0.030783    0.413891
C         3.147715   -0.238360   -0.179240
C        -1.322427    1.672125   -0.115931
H         0.702521    0.169561   -1.367364
H         1.731284   -0.046611    1.500630
H         3.115207   -0.209841   -1.269334
H         3.560542   -1.203920    0.126140
H         3.847491    0.528846    0.163676
H        -1.441504    1.676967   -1.200693
H        -0.700172    2.524282    0.167758
H        -2.305614    1.787264    0.340431
H        -0.570461    0.365859    1.429212
Cl        -1.752310   -1.019106   -0.058103
