47
0 1
C         2.910393   -0.281075   -0.691851
C         4.089179   -0.387817   -0.065942
C        -4.254581    0.803958    0.279346
C        -3.072288    0.515197    0.815199
C         0.707428   -1.219164   -1.275763
C         1.888890   -1.312466   -0.664657
C        -2.712167   -0.756134    1.514499
H        -3.571125   -1.432556    1.474078
C        -0.364449   -2.261412   -1.252454
H        -0.562849   -2.594018   -2.278097
H        -0.016221   -3.141549   -0.700364
C        -1.689199   -1.767397   -0.646212
C        -1.507113   -1.421353    0.833205
H        -0.642423   -0.758980    0.941088
H        -1.260614   -2.337546    1.383571
C        -4.505204    2.103769   -0.395275
O        -3.645260    2.950250   -0.508050
H        -1.972860   -0.852353   -1.179686
C        -2.790674   -2.801584   -0.863280
H        -2.888406   -3.051621   -1.922211
H        -3.761928   -2.440559   -0.520737
H        -2.567461   -3.726093   -0.321369
C         5.155578    0.613126   -0.049741
C         6.276904    0.338533    0.631376
H         6.319393   -0.625340    1.134041
C         7.497054    1.184500    0.800021
H         8.381247    0.662455    0.421390
H         7.682708    1.383247    1.860084
H         7.431734    2.143044    0.288086
C         4.917362    1.891077   -0.804118
H         5.758803    2.576444   -0.737959
H         4.033664    2.406884   -0.419273
H         4.734597    1.685518   -1.862178
C        -5.896487    2.312221   -0.939150
H        -5.971044    3.290982   -1.407924
H        -6.629921    2.230003   -0.132328
H        -6.133054    1.532642   -1.668607
C        -2.395924   -0.471276    2.986819
H        -3.253247   -0.030418    3.498525
H        -1.555750    0.222404    3.076451
H        -2.124908   -1.394318    3.504350
H         0.480262   -0.311640   -1.834029
H         2.121436   -2.213481   -0.099714
H         4.293859   -1.299730    0.490725
H         2.673176    0.615370   -1.257054
H        -2.292135    1.272184    0.741075
H        -5.073077    0.090810    0.320325
