55
0 2
C         0.997667   -0.203641   -1.566773
C         2.370922   -0.276744   -1.014786
F         2.639817   -1.477058   -0.401432
Si        -0.303791    0.011911   -0.147047
Si         0.028332    2.120006    0.839169
Si        -0.118639   -1.653094    1.503288
Si        -2.462150   -0.039737   -1.082438
C        -0.567230    3.487145   -0.317913
H        -0.364709    4.471730    0.113388
H        -0.062783    3.441231   -1.286471
H        -1.641919    3.420890   -0.501193
C        -0.938243    2.236092    2.453624
H        -0.837650    3.235558    2.886321
H        -2.002653    2.042881    2.306146
H        -0.569063    1.519350    3.190594
C         1.849336    2.426327    1.212912
H         1.973556    3.375979    1.741890
H         2.270636    1.634669    1.835510
H         2.440505    2.475050    0.296399
C        -1.702654   -1.637888    2.530710
H        -2.575269   -1.910350    1.932796
H        -1.627643   -2.358483    3.350256
H        -1.892900   -0.656222    2.969937
C         0.084713   -3.365084    0.747323
H         1.029839   -3.438279    0.206704
H         0.084457   -4.128726    1.530632
H        -0.725839   -3.599727    0.053577
C         1.333721   -1.308682    2.651075
H         2.271270   -1.283731    2.093364
H         1.219312   -0.353658    3.169121
H         1.413314   -2.090306    3.412247
C        -3.023186   -1.806677   -1.429786
H        -3.073037   -2.395225   -0.510870
H        -4.020073   -1.810943   -1.880079
H        -2.346220   -2.321707   -2.114481
C        -3.699922    0.744687    0.104341
H        -4.711699    0.680505   -0.306221
H        -3.702855    0.243189    1.074362
H        -3.480225    1.800720    0.275677
C        -2.492819    0.935307   -2.697577
H        -3.497647    0.929699   -3.129787
H        -2.205759    1.976976   -2.537750
H        -1.812292    0.515206   -3.441654
C         0.687207   -1.387384   -2.504916
H         1.439578   -1.471517   -3.294180
H         0.671658   -2.330020   -1.957817
H        -0.283976   -1.262081   -2.984986
C         3.581469    0.343330   -1.612529
C         4.769832    0.419351   -0.655763
H         3.305744    1.342895   -1.959347
H         3.876459   -0.220409   -2.513255
H         5.633688    0.868478   -1.148912
H         4.525531    1.019792    0.222261
H         5.054539   -0.575879   -0.313123
H         0.948378    0.721944   -2.149416
