24
0 1
C         0.000000    1.238605   -0.863995
C         0.000000   -1.238605   -0.863995
N         1.189660    0.610245   -1.546219
N         1.189660   -0.610245   -1.546219
C         0.000000   -2.726612   -1.060807
H        -0.890185   -3.168264   -0.612386
H         0.000000   -2.952981   -2.126646
H         0.890185   -3.168264   -0.612386
C         0.000000    2.726612   -1.060807
H         0.000000    2.952981   -2.126646
H        -0.890185    3.168264   -0.612386
H         0.890185    3.168264   -0.612386
C         0.000000    0.695711    2.913540
C         0.000000    1.403642    1.718513
C         0.000000    0.693294    0.530016
C         0.000000   -0.693294    0.530016
C         0.000000   -1.403642    1.718513
C         0.000000   -0.695711    2.913540
H         0.000000    1.232540    3.854069
H         0.000000    2.486146    1.720811
H         0.000000   -2.486146    1.720811
H         0.000000   -1.232540    3.854069
N        -1.189660    0.610245   -1.546219
N        -1.189660   -0.610245   -1.546219
