35
0 1
C         1.213223    1.532138    1.527395
C         0.369894    0.580114    0.658510
C         1.302891   -0.348488   -0.076284
C         2.349683    0.323179   -0.905078
C         3.198129    1.238562   -0.005487
C         2.321563    2.235975    0.745969
H         1.657739    0.940681    2.333471
H         0.549652    2.260330    1.996893
H         2.973121   -0.402498   -1.425633
H         1.850057    0.938821   -1.660792
H         3.754655    0.618377    0.704436
H         3.936708    1.757850   -0.619308
H         1.883339    2.941338    0.035713
H         2.931818    2.825015    1.434499
C         1.243399   -1.686764    0.073100
C         0.284017   -2.317331    0.929429
C        -1.064671    3.838323   -0.242915
C         2.152417   -2.563588   -0.602819
N        -0.469856   -2.824525    1.631163
N         2.882525   -3.262385   -1.147938
C        -0.799954    2.568349   -0.274498
C        -0.560223    1.290565   -0.320807
C        -1.271392    0.438330   -1.343597
H        -2.020680    1.026007   -1.869530
H        -0.564717    0.018174   -2.060955
O        -1.879648   -0.711677   -0.741538
C        -3.094035   -0.529777   -0.169316
C        -3.604936   -1.807685    0.417879
O        -3.655257    0.531285   -0.162874
H        -2.882234   -2.206606    1.130675
H        -4.561718   -1.626253    0.900285
H        -3.720713   -2.550443   -0.373217
H        -1.857493    4.224218    0.388445
H        -0.267579   -0.012242    1.318077
H        -0.511426    4.547332   -0.849229
