19
1 2
N         0.530440    1.578635    0.320374
C         0.938365    0.229824    0.742608
H         0.731307    2.296272    1.018638
H        -0.501208    1.586211    0.090667
C         2.160602   -0.157714   -0.051077
H         0.943083    0.091314    1.819554
H        -0.049374   -0.562103    0.287143
O         2.452897    0.539212   -1.008242
N         2.804039   -1.270742    0.317193
H         2.574228   -1.784657    1.152571
C        -1.121393   -1.139482   -0.314612
C        -2.229528   -0.170252   -0.118743
H        -0.774496   -1.188770   -1.345581
H        -1.257997   -2.111507    0.149686
O        -2.058311    1.037310   -0.083584
O        -3.409516   -0.729401    0.020970
H         3.615108   -1.555245   -0.214050
H        -4.091823   -0.045681    0.127649
H         1.100986    1.767680   -0.531456
