39
1 1
C        -1.431821   -2.634842   -0.713814
C        -0.551962   -1.641592    0.050978
C        -2.598092   -0.944416    0.535394
C        -2.869157   -2.149988   -0.370506
H        -1.217805   -2.640544   -1.784816
H        -1.237112   -3.642295   -0.347735
H        -3.445143   -1.860441   -1.247547
H        -3.431058   -2.913562    0.166455
C        -1.354420   -1.379313    1.318782
H        -0.940788   -0.611251    1.969907
H        -1.501871   -2.294177    1.890609
H         0.504511   -1.873638    0.126942
H        -3.455302   -0.584471    1.096322
N        -2.086413    0.153958   -0.324919
N        -0.728358   -0.312931   -0.679949
C         0.275475    0.846210   -0.430003
C         1.666729    0.345786   -0.170508
C         2.521610    0.167303   -1.256181
C         2.122750    0.035021    1.109182
C         3.805428   -0.324577   -1.071909
H         2.188735    0.429735   -2.255068
C         3.406082   -0.455667    1.294146
H         1.486821    0.177208    1.973558
C         4.247843   -0.638846    0.204739
H         4.462217   -0.451287   -1.923084
H         3.753339   -0.688411    2.292852
H         5.251681   -1.016244    0.353437
C        -1.910331    1.445784    0.349647
H        -2.541259    1.479048    1.236245
C        -0.415726    1.724366    0.603742
H        -0.025953    1.580259    1.607962
C        -1.987344    2.731800   -0.500990
C        -0.638277    3.176388    0.119987
H         0.116627    3.594489   -0.544905
H        -0.774536    3.856102    0.959403
H        -2.849125    3.374959   -0.335991
H        -1.920502    2.513033   -1.567251
H         0.272581    1.367044   -1.388296
H        -0.725385   -0.503253   -1.681033
