13
-1 1
N         1.283805    1.359301    0.000030
C         2.321375    0.512166   -0.000055
N         2.061946   -0.810273   -0.000125
C         0.707162   -0.842294   -0.000075
C         0.231847    0.486162    0.000020
C        -1.141188    0.674983    0.000082
N        -0.129555   -1.904978   -0.000105
C        -1.405441   -1.578906   -0.000037
N        -1.967889   -0.349678    0.000054
H         3.341918    0.878817   -0.000073
H        -2.115261   -2.402535   -0.000060
O        -1.667423    1.928046    0.000173
H        -0.907943    2.526082    0.000178
