23
0 2
C         2.973499    0.197347   -0.128648
C         2.459417   -1.086304    0.427740
C         2.073901    1.385320   -0.140769
C         1.031987   -1.390878   -0.044918
C         0.136972   -0.182339    0.151627
C         0.654842    1.030583   -0.604181
O        -1.172956   -0.549710   -0.334091
C        -2.230507    0.101969    0.174438
C        -3.509305   -0.382929   -0.443837
O        -2.146337    0.959491    1.014092
H         2.455596   -1.033330    1.530275
H         3.123190   -1.915401    0.173047
H         2.485072    2.179822   -0.767263
H         2.008487    1.809337    0.875918
H         0.620881   -2.245050    0.497660
H         1.038749   -1.650005   -1.107700
H         0.043085    0.058171    1.213654
H        -0.017833    1.875710   -0.449909
H         0.661037    0.792956   -1.672406
H        -3.596612   -1.463066   -0.321696
H        -3.499259   -0.173279   -1.514650
H        -4.352384    0.118869    0.023785
H         4.039493    0.330404   -0.269451
