19
1 1
C         4.366697   -0.670126    0.015299
C         3.162762   -0.000000    0.003858
C         4.366697    0.670126    0.015304
H         4.922139   -1.595785    0.020594
H         4.922139    1.595785    0.020606
C         1.748011    0.000000   -0.008684
C         1.053614    1.219304   -0.015922
C         1.053614   -1.219304   -0.015921
C        -0.325026    1.215237   -0.028693
H         1.596158    2.156465   -0.013295
C        -0.325026   -1.215237   -0.028691
H         1.596158   -2.156465   -0.013294
C        -1.003412    0.000000   -0.034377
H        -0.878374    2.144611   -0.041459
H        -0.878375   -2.144611   -0.041455
C        -2.516644    0.000000    0.001920
F        -2.942703   -0.000005    1.271397
F        -3.015736    1.082030   -0.599930
F        -3.015736   -1.082025   -0.599939
