26
0 2
C         0.663401   -0.200624   -0.344004
C         1.559413   -1.448249   -0.367306
C         3.012657   -0.918021   -0.415352
H         1.318949   -2.097580   -1.210343
H         1.388065   -2.019677    0.545969
C         2.909333    0.609075   -0.257255
H         3.513672   -1.186818   -1.346364
H         3.600097   -1.352710    0.395029
C         1.536876    0.857005    0.388251
H         2.930280    1.098879   -1.235872
H         3.720844    1.036088    0.333477
C         1.039960    2.247754    0.280855
C        -0.645813   -0.424418    0.361625
O        -1.693768   -0.038720   -0.379239
C        -2.990745   -0.179875    0.227869
O        -0.756625   -0.879050    1.471725
C        -4.012318    0.316499   -0.765268
H        -3.975081   -0.267354   -1.686240
H        -3.835425    1.364106   -1.013440
H        -5.014663    0.227293   -0.341657
H        -3.005173    0.394906    1.155469
H        -3.142751   -1.229272    0.486131
H         0.553996    2.745274    1.109182
H         1.080148    2.764066   -0.671727
H         0.459179    0.154733   -1.355941
H         1.574425    0.555352    1.439945
