35
1 1
C        -2.217554    1.179828    0.709348
C        -2.496638    1.606990   -0.710209
C        -3.283965    0.603421   -1.547214
C        -2.597709   -0.750665   -1.673304
C        -2.490539   -1.475560   -0.335395
C        -1.507480   -0.903212    0.651502
H        -3.438636    1.025943   -2.541418
H        -1.546460    1.837715   -1.202144
H        -3.054049    2.547733   -0.667731
H        -3.042102    0.754927    1.276263
H        -1.603912   -0.634702   -2.118497
H        -3.165281   -1.386280   -2.354621
H        -2.174823   -2.514098   -0.487056
H        -3.465997   -1.525576    0.153247
H        -4.281535    0.465212   -1.116148
C        -1.628963   -1.372411    2.077888
H        -0.895366   -0.899448    2.727786
H        -1.465177   -2.453140    2.103866
H        -2.634978   -1.185126    2.450535
C        -1.179281    1.710126    1.404305
H        -1.042168    1.520313    2.462093
H        -0.510790    2.428744    0.951957
N        -0.233449   -0.779741    0.222977
N         0.508678    0.175826    0.329242
C         1.878067    0.049699    0.044702
C         2.483072   -1.167033   -0.284267
C         2.616897    1.228280    0.122912
C         3.838607   -1.188347   -0.536518
H         1.888682   -2.069574   -0.341589
C         3.977134    1.193451   -0.132255
H         2.118739    2.153107    0.383529
C         4.583543   -0.011255   -0.460787
H         4.325374   -2.120050   -0.794076
H         4.563200    2.101175   -0.075228
H         5.647529   -0.039343   -0.660549
