16
0 1
N         0.000000   -0.269244   -0.068612
C        -1.218590    0.517573    0.021956
C         1.218590    0.517573    0.021957
C        -2.449377   -0.370448   -0.032906
H         1.229071    1.214567   -0.822067
H        -1.229071    1.214566   -0.822069
H        -1.245434    1.135582    0.936209
C         2.449377   -0.370448   -0.032907
H         1.245434    1.135581    0.936211
H        -2.459746   -0.953548   -0.955258
H         2.459746   -0.953546   -0.955260
H        -3.363038    0.225426    0.013828
H        -2.466567   -1.069009    0.808679
H         2.466567   -1.069011    0.808677
H         3.363038    0.225426    0.013829
H         0.000000   -0.986836    0.648912
