40
1 1
C        -3.464900   -0.415541   -0.106613
C        -2.413983   -1.178327    0.687329
C        -1.016665   -1.075804    0.062488
H        -2.387207   -0.785226    1.710863
H        -2.684868   -2.231796    0.768610
C        -0.941361   -1.999791   -1.160102
H        -1.073859   -3.037116   -0.847981
H         0.016404   -1.931040   -1.674441
H        -1.721830   -1.772984   -1.889653
C        -0.691734    0.409327   -0.360108
C        -1.715886    1.416761   -0.147652
C        -3.134471    1.064604   -0.061442
H        -4.461811   -0.573822    0.304573
H        -3.500228   -0.762692   -1.141517
C        -1.362799    2.839720   -0.056847
C         0.032637   -1.490116    1.105709
C         1.470634   -1.470389    0.584261
H        -0.220257   -2.490030    1.466512
H        -0.058751   -0.827625    1.972591
C         0.750065    0.862481   -0.072594
H        -0.827770    0.431258   -1.476416
C         1.762884   -0.256774   -0.327815
H         0.812556    1.187261    0.970164
H         1.012710    1.723937   -0.688545
H         1.692244   -2.384936    0.032561
H         2.147980   -1.469014    1.439247
C         3.188382    0.234177   -0.189716
H         1.642117   -0.565836   -1.369269
C         4.062630    0.036757   -1.169083
H         3.781379   -0.458184   -2.091783
H         5.094493    0.354685   -1.081002
C         3.567187    0.930588    1.088519
H         3.286416    0.349146    1.970836
H         3.074209    1.903689    1.175536
H         4.641290    1.104403    1.132876
H        -3.451791    1.517509    0.895147
H        -3.676233    1.672721   -0.799573
H        -0.671498    3.123682   -0.854547
H        -0.790775    2.980918    0.870380
H        -2.230655    3.495055   -0.053180
