32
0 2
C         2.007139   -0.491772    0.421179
C         1.375447   -1.698162   -0.234700
C         0.236273   -1.333380   -1.220893
H         0.980895   -2.357001    0.543154
H         2.141769   -2.260347   -0.778213
C        -0.861950   -0.528801   -0.608913
C        -1.719087   -1.149123    0.447266
C        -0.855577    0.963490   -0.703685
N         1.863479   -0.186654    1.643998
C         2.845808    0.388290   -0.471765
C         3.383178    1.643564    0.195044
C        -2.261186    1.566434   -0.603644
H        -0.371867    1.282153   -1.632043
H        -0.243100    1.378188    0.115300
C        -3.111593   -0.513751    0.524909
H        -1.236090   -1.026559    1.432875
H        -1.799914   -2.229021    0.285785
H         2.567403    2.273427    0.551881
H         3.996163    1.394111    1.060973
H         3.669137   -0.225746   -0.856563
H         2.250798    0.650888   -1.352523
C        -3.019618    1.008264    0.597862
H        -2.818452    1.333841   -1.517625
H        -2.193097    2.655691   -0.541141
H        -4.020646    1.444825    0.648945
H        -2.502371    1.297564    1.520754
H        -3.652037   -0.907678    1.389753
H        -3.684908   -0.796054   -0.364730
H         3.986805    2.221145   -0.508026
H        -0.165581   -2.277714   -1.606434
H         0.656867   -0.801007   -2.078079
H         1.280874   -0.874454    2.122007
