26
1 1
C         0.696479    0.990839    0.000003
C        -0.696478    0.990837   -0.000010
C        -0.000001    2.158916    0.000023
H        -0.000002    3.236861    0.000033
C        -1.951238    0.321128   -0.000007
C        -3.129848    1.080794    0.000169
C        -2.014101   -1.078445   -0.000183
C        -4.354103    0.443329    0.000182
H        -3.075067    2.162550    0.000300
C        -3.243037   -1.707765   -0.000184
H        -1.103682   -1.662691   -0.000337
C        -4.408204   -0.947337    0.000004
H        -5.268054    1.022566    0.000324
H        -3.299999   -2.788306   -0.000328
H        -5.370439   -1.444553    0.000009
C         1.951239    0.321130   -0.000001
C         2.014101   -1.078444    0.000077
C         3.129850    1.080794   -0.000074
C         3.243036   -1.707765    0.000080
H         1.103680   -1.662689    0.000149
C         4.354104    0.443328   -0.000079
H         3.075069    2.162550   -0.000133
C         4.408203   -0.947338   -0.000002
H         3.299997   -2.788306    0.000144
H         5.268056    1.022564   -0.000140
H         5.370438   -1.444555   -0.000003
