52
0 1
C         0.119974   -2.817476    0.101194
C        -0.204308   -1.488519    0.837928
C         2.561577   -0.686739   -0.340166
H        -0.820892   -3.250305   -0.247757
C         0.597200   -1.313426    2.146251
H         0.445228   -0.301056    2.536511
H         0.164516   -1.986374    2.894288
H         3.435075   -0.238635   -0.822912
H        -1.254359   -1.535584    1.137462
C         2.091589   -1.608353    2.071440
H         2.504429   -1.531845    3.082206
H         2.238263   -2.651701    1.779235
C         2.919834   -0.710839    1.157300
H         2.901102    0.310427    1.548466
H         3.962466   -1.036660    1.238010
C         2.442975   -2.112615   -0.938079
H         2.905723   -2.104840   -1.929785
C         1.037993   -2.700113   -1.122841
H         0.518111   -2.112554   -1.889101
H         1.151299   -3.696733   -1.560713
H         3.049362   -2.799903   -0.338966
H         0.536277   -3.540344    0.809554
C         1.353918    0.209126   -0.689513
H         1.258736    0.249225   -1.785536
Si         1.562388    2.064576   -0.293402
C         0.944563    2.505841    1.430124
H         1.515817    2.017248    2.221565
H         1.016514    3.585084    1.590212
H        -0.105072    2.228257    1.556759
C         0.562471    3.047826   -1.540400
H         0.638872    4.120839   -1.345440
H         0.916666    2.869400   -2.559211
H        -0.491041    2.766189   -1.499289
C         3.371479    2.554328   -0.447720
H         3.758411    2.325012   -1.444059
H         3.483213    3.630794   -0.291803
H         4.007251    2.047125    0.280633
B        -0.022074   -0.297885   -0.171814
C        -3.113602    0.744922    0.503388
C        -4.510404    0.491985    0.802823
H        -4.986467   -0.297546    0.230800
C        -5.213159    1.157555    1.718174
H        -4.767565    1.948955    2.311462
H        -6.255377    0.931364    1.902698
C        -2.410037    0.052894   -0.392429
O        -1.122489    0.358008   -0.706588
O        -2.918177   -1.008664   -1.053620
C        -2.669837   -1.062463   -2.457498
H        -3.189147   -1.947095   -2.817730
H        -3.069388   -0.172004   -2.949621
H        -1.604028   -1.148654   -2.670833
H        -2.595074    1.528924    1.041395
