22
1 1
C         2.603809   -0.009870   -0.000014
N         1.424209   -0.439239   -0.000051
N         0.395732   -1.057837   -0.000105
C        -0.848662   -0.418140   -0.000037
C        -1.946293   -1.279067   -0.000115
C        -1.002518    0.973507    0.000099
C        -3.220404   -0.739589   -0.000056
H        -1.779111   -2.348508   -0.000220
C        -2.276852    1.494844    0.000157
H        -0.139132    1.627703    0.000158
C        -3.381681    0.639313    0.000080
H        -4.084749   -1.390157   -0.000114
H        -2.423950    2.566875    0.000262
H        -4.379124    1.061277    0.000126
C         3.296703    0.254530    1.301974
H         2.670214    0.013129    2.157661
H         4.207534   -0.347666    1.337782
H         3.593108    1.304353    1.348721
C         3.296695    0.254774   -1.301957
H         2.670174    0.013608   -2.157686
H         3.593175    1.304585   -1.348474
H         4.207482   -0.347481   -1.337918
