19
0 2
C         3.294507   -0.534173    0.090292
N         1.962330   -0.339911   -0.399068
H         3.794987   -1.327251   -0.464887
H         3.284568   -0.803896    1.157087
H         3.889554    0.387642    0.005910
C         1.279427    0.728567    0.271241
C        -0.157685    0.876530   -0.205719
H         1.833159    1.667363    0.105665
H         1.303708    0.562204    1.362055
C        -1.013293   -0.345889    0.130267
H        -0.150804    1.034404   -1.288398
H        -0.600046    1.770080    0.244866
C        -2.401419   -0.245512   -0.419712
H        -1.056198   -0.480263    1.216329
H        -0.517530   -1.229937   -0.283615
C        -3.512742   -0.239524    0.302590
H        -4.490263   -0.159568   -0.157514
H        -3.483793   -0.319291    1.384747
H        -2.476417   -0.162104   -1.502532
