27
-1 1
C         1.789790    0.299995    0.131170
C         1.127165    1.659448    0.190986
C        -0.016816    1.808114    0.986840
O         1.590129    2.552687   -0.554992
C        -1.461890    1.505101   -0.572950
C        -2.468317    0.789156   -0.401043
C        -3.053710   -0.069959    0.628009
O        -4.303219   -0.688563    0.291479
C        -4.206930   -1.505543   -0.844718
H        -0.343197    2.820415    1.190471
H        -0.268104    1.063991    1.731509
H        -0.917590    2.145275   -1.245232
H        -2.345099   -0.871213    0.899397
H        -3.271035    0.504014    1.532818
H        -5.203821   -1.899831   -1.049444
H        -3.847147   -0.935908   -1.708732
H        -3.517680   -2.347547   -0.674429
C         3.099187    0.226939   -0.341103
C         3.766605   -0.986989   -0.415047
C         3.126464   -2.160723   -0.035100
C         1.812874   -2.103664    0.415270
C         1.153076   -0.885397    0.498704
H         3.565545    1.152330   -0.656041
H         4.788781   -1.020776   -0.777748
H         3.642158   -3.112767   -0.099434
H         1.295039   -3.015347    0.693793
H         0.121879   -0.854498    0.825080
