24
0 1
C        -0.004175    1.297467    0.706683
C        -0.004185   -1.297467    0.706683
C        -1.287618    1.287234   -0.174055
H        -2.150528    1.445120    0.483636
H        -1.266469    2.148245   -0.851023
H        -0.031724   -2.215011    1.300830
H        -0.031707    2.215011    1.300831
H        -0.444351    0.000001    2.721408
C        -1.287635   -1.287220   -0.174047
H        -2.150544   -1.445087    0.483650
H        -1.266504   -2.148236   -0.851009
B        -0.136935    0.000000    1.565978
C         1.316343   -1.287602   -0.093432
H         2.135029   -1.450854    0.617181
H         1.341783   -2.143176   -0.777862
C         1.316359    1.287588   -0.093423
H         2.135044    1.450821    0.617196
H         1.341816    2.143167   -0.777846
C        -1.515361    0.000006   -0.980270
H        -0.879740   -0.000001   -1.864476
H        -2.541732    0.000012   -1.359190
C         1.601385   -0.000006   -0.878454
H         2.651891   -0.000011   -1.184187
H         1.031732    0.000001   -1.807138
