26
0 1
Cl         2.081345    2.181418   -0.073890
C         1.574669    0.460567   -0.485420
C         0.110869    0.277855   -0.206298
C         2.454567   -0.487724    0.255854
C        -0.752489   -0.062640   -1.232911
C        -0.410558    0.408798    1.083319
C         3.326066   -1.289305   -0.340117
C        -2.107783   -0.282725   -1.001269
C        -2.608023   -0.153527    0.287065
C        -1.748507    0.196684    1.330576
H         0.239895    0.699984    1.899427
H        -2.750430   -0.546933   -1.828746
O        -3.907666   -0.341704    0.629412
H        -2.161427    0.301208    2.325677
H        -0.370784   -0.163228   -2.242858
C        -4.825300   -0.687139   -0.387675
H        -5.792299   -0.785377    0.100071
H        -4.558723   -1.638706   -0.857733
H        -4.883383    0.093065   -1.152698
C         4.205546   -2.271491    0.363264
H         5.260276   -2.057250    0.169214
H         4.017277   -3.289086    0.009644
H         4.044932   -2.249286    1.442100
H         3.422308   -1.241089   -1.423195
H         2.338851   -0.508409    1.335805
H         1.757631    0.378518   -1.554213
