14
0 2
O         0.000023    0.260290    1.425043
C        -0.000002   -0.025129    0.076580
C         0.000092    1.379768   -0.575035
C        -1.268738   -0.787820   -0.312830
C         1.268629   -0.787991   -0.312836
H        -2.154029   -0.219862   -0.024463
H        -1.298044   -1.752687    0.196900
H        -1.298557   -0.969262   -1.389519
H         2.153997   -0.220152   -0.024472
H         1.298418   -0.969435   -1.389525
H         1.297807   -1.752862    0.196893
H        -0.888138    1.938447   -0.281175
H         0.000078    1.252195   -1.659077
H         0.888401    1.938324   -0.281181
