63
0 1
O         6.560789    0.957159    1.451347
C         6.483117    0.052362    0.348972
C         5.421212   -0.990599    0.720955
C         4.141645   -0.823066   -0.098642
C         4.500675    0.952356   -0.712260
C         5.983812    0.764802   -0.902538
C         2.899721   -0.920453    0.552518
C         1.651323    1.451000   -0.401930
C         2.286027    1.439920   -1.627956
C         3.646937    1.218985   -1.791852
C         1.753354   -1.512492   -0.017349
C         0.587907   -1.763019    0.631991
C         0.232697    1.446736   -0.275878
C        -0.402170    1.239319    0.892294
C        -1.864035    1.273027    1.076025
O        -2.527928    1.524775   -0.059117
C        -3.969647    1.729975   -0.029985
C        -4.216717    3.191328   -0.371344
C        -3.549258    4.168791    0.587649
C        -0.550529   -2.320928   -0.086772
C        -1.888509   -2.366884    0.625959
C        -2.225517   -3.798930    1.046778
O        -2.391381    1.099138    2.150144
C        -4.612933    0.766994   -1.028433
C        -5.178775   -0.529188   -0.438657
C        -4.211552   -1.349363    0.414001
C        -2.935340   -1.731922   -0.310558
O        -3.265590   -2.581143   -1.397163
O        -0.468395   -2.701158   -1.251916
H         5.798971   -2.003552    0.569311
H         5.208807   -0.884443    1.785211
H         7.462335   -0.408032    0.187768
H         6.498246    1.720092   -1.040939
H         6.178015    0.155708   -1.791054
H         4.269835    1.459852    0.219113
H         2.227982    1.518845    0.510505
H        -0.361215    1.556769   -1.177607
H         0.149188    1.099129    1.813765
H        -4.303279    1.526044    0.988183
H        -3.877241    0.546594   -1.805855
H        -5.429561    1.292585   -1.530912
H        -6.052495   -0.284140    0.174717
H        -5.539489   -1.149142   -1.262448
H        -3.940707   -0.790623    1.314003
H        -4.718872   -2.260123    0.743708
H        -2.481271   -0.818359   -0.708787
H        -1.823976   -1.738660    1.518508
H         1.795061   -1.791724   -1.067241
H         2.852320   -0.629533    1.599488
H         4.174299   -1.336510   -1.056306
H        -3.878831    3.372581   -1.397098
H        -5.299965    3.345461   -0.366070
H        -2.462391    4.072643    0.557881
H        -3.871720    3.994303    1.616832
H        -3.796775    5.199457    0.326892
H        -1.449419   -4.203543    1.700350
H        -2.314742   -4.444774    0.173942
H        -3.170720   -3.828883    1.590539
H        -2.423506   -2.822654   -1.809619
H         7.263718    1.592672    1.290447
H         0.469890   -1.531887    1.683834
H         4.023191    1.064960   -2.798779
H         1.663681    1.486224   -2.516578
