14
0 1
N         2.097162   -1.028316   -0.000024
N         3.100539   -0.306477    0.000015
N         4.106701    0.184734    0.000034
C         0.821658   -0.462655   -0.000011
C         0.521198    0.896447   -0.000010
C        -0.253325   -1.351427   -0.000006
C        -0.782761    1.355714   -0.000001
C        -1.559990   -0.903946    0.000003
C        -1.830472    0.454167    0.000005
F         1.515773    1.790684   -0.000020
F        -1.026236    2.661351    0.000000
F        -3.085615    0.886157    0.000013
F        -2.560989   -1.776398    0.000009
F        -0.023895   -2.659503   -0.000008
