12
-1 1
N         1.590212    1.140865    0.000075
C         2.248818   -0.020803    0.000069
N         1.538125   -1.167479    0.000029
C         0.265124   -0.710943    0.000012
C         0.287456    0.718743    0.000013
C        -0.931414    1.368044   -0.000029
N        -2.073645    0.673788   -0.000066
N        -0.880646   -1.410991   -0.000033
C        -1.974226   -0.665114   -0.000066
H        -2.920734   -1.201359   -0.000105
H        -1.005957    2.453306   -0.000019
H         3.333816   -0.044782    0.000102
