28
0 1
C        -0.803576   -0.065099   -1.282417
C        -0.064266   -0.094736    0.038004
C        -0.655202    0.203459    1.190143
C        -2.124900    0.573830    1.211291
C        -2.914635   -0.701941    0.929761
C        -3.003754   -0.876790   -0.383719
C        -2.302094    0.260108   -1.103189
H        -0.356779    0.695911   -1.930498
H        -0.681831   -1.025542   -1.795729
H        -2.742064    0.504960   -2.070699
C        -2.425734    1.381159   -0.060504
H        -3.428059   -1.737316   -0.885118
H        -3.244780   -1.389879    1.697027
C         1.404618   -0.520650   -0.033378
H        -3.443870    1.772205   -0.036002
H        -1.724839    2.202757   -0.218262
H        -2.393269    1.076123    2.139759
C         2.228775    0.367793   -1.023992
C         2.049693   -0.467458    1.286433
C         1.479209   -1.910059   -0.524186
N         2.571052   -0.411511    2.304717
N         1.519397   -2.972573   -0.951586
C         2.139340    1.781815   -0.700221
C         2.055922    2.941645   -0.425025
H        -0.112166    0.154089    2.126608
H         3.269016    0.037660   -1.004316
H         1.853613    0.185789   -2.031956
H         1.991507    3.973373   -0.176734
