35
1 1
C         0.424806    2.645812   -0.595382
C        -0.595380    2.929640    0.468640
C        -1.490008    1.728334    0.795770
C        -2.386098    1.289991   -0.361503
C        -3.177736    0.022250   -0.065475
C        -2.392639   -1.265775   -0.076895
H        -2.121920    1.976748    1.653757
H        -1.225710    3.769311    0.156883
H        -0.084271    3.245151    1.380874
H        -1.804253    1.150024   -1.276769
H        -3.099734    2.086540   -0.583529
H        -3.972126   -0.126305   -0.806060
H        -3.680665    0.082153    0.904919
H        -0.847408    0.902363    1.116813
C        -3.034539   -2.545004    0.368283
H        -2.386808   -3.404947    0.212569
H        -3.963661   -2.683042   -0.188322
H        -3.291676   -2.469311    1.426977
C         1.728504    2.552767   -0.377071
N        -1.198991   -1.274133   -0.462167
N        -0.152947   -1.276489   -1.052584
C         1.066656   -1.116052   -0.387082
C         1.184586   -1.030761    1.004368
C         2.179222   -1.040618   -1.223366
C         2.436116   -0.853811    1.550377
H         0.312076   -1.112412    1.640314
C         3.429560   -0.857478   -0.660878
H         2.040614   -1.118445   -2.293961
C         3.554092   -0.762466    0.718476
H         2.554761   -0.788842    2.624014
H         4.304792   -0.791615   -1.293439
H         4.533561   -0.622464    1.159022
H         0.057402    2.524297   -1.611895
H         2.148833    2.694904    0.613436
H         2.426911    2.359266   -1.181915
