12
1 1
C         0.000000   -1.817884    0.000000
C         0.000000   -1.124983    1.205530
C         0.000000    0.251864    1.193572
N         0.000000    0.853443    0.000000
C         0.000000    0.251864   -1.193572
C         0.000000   -1.124983   -1.205530
F         0.000001    2.199176    0.000000
H         0.000001   -2.900678    0.000000
H        -0.000001   -1.639272    2.156841
H         0.000000    0.898636    2.060973
H         0.000000    0.898636   -2.060973
H        -0.000001   -1.639272   -2.156841
