50
0 1
C        -0.687031    2.030998   -0.322779
C        -0.449015    0.619143    0.143161
C         0.804930    0.256833    0.843948
C         2.011153    0.364396   -0.189211
C         3.314412    0.085713    0.573431
C         4.483895    0.192458   -0.373641
N        -1.286502   -0.338073   -0.068066
C        -2.588944   -0.234682   -0.719624
C        -3.714522   -0.048657    0.291450
H        -2.738331   -1.149991   -1.294052
H        -2.557462    0.593364   -1.427231
C        -5.070867    0.049869   -0.395874
H        -3.520010    0.849998    0.885484
H        -3.712572   -0.892460    0.988448
C        -6.207053    0.237490    0.605314
H        -5.258754   -0.848507   -0.984876
H        -5.065764    0.895389   -1.094067
C        -7.601131    0.320696   -0.024326
H        -6.043260    1.164473    1.164512
H        -6.194059   -0.579397    1.335180
C        -8.087711   -1.043373   -0.546790
N        -8.632228    0.881735    0.853897
H        -7.550960    0.960401   -0.911806
O        -7.363452   -1.852086   -1.057705
O        -9.395493   -1.236703   -0.405927
H        -9.729652   -0.451073    0.077740
O         0.271217    2.907808    0.122066
H        -1.681194    2.341181    0.023590
H        -0.734352    1.977799   -1.425663
H         1.157673    2.510428   -0.274574
O         0.642673   -1.042110    1.372661
H         0.966221    1.006370    1.627379
H         1.533226   -1.422091    1.484620
O         2.076292    1.547524   -0.821750
H         1.850550   -0.504187   -0.867106
O         3.271071   -1.227413    1.148656
H         3.428986    0.831105    1.368372
H         4.124974   -1.405499    1.557413
O         5.640593   -0.242915    0.387104
H         4.611814    1.217683   -0.711067
H         4.350288   -0.472834   -1.230132
H        -8.678579    1.890469    0.796159
H        -8.476309    0.630583    1.824428
P         7.084807   -0.308379   -0.279822
O         7.908227   -0.916359    0.955086
H         8.696982   -0.401232    1.154657
O         6.998877   -1.515550   -1.330871
H         6.734685   -2.362922   -0.956758
O         7.622755    0.913976   -0.875536
H        -0.985903   -1.233689    0.325220
