55
0 1
C        -5.961577   -0.290354   -1.684356
C        -5.175191   -1.123597   -0.679918
C        -3.814518   -0.522167   -0.365464
C        -2.904200   -1.447048    0.473355
C        -1.520474   -0.891050    0.699988
C        -0.395052   -1.130689   -0.020913
C         0.860615   -0.656219    0.481460
C         2.119075   -0.996406   -0.012385
C         2.931046    0.516619   -1.218701
C         2.883680    1.720130   -0.505395
C         1.691092    2.326799   -0.131374
C         0.453970    1.848351   -0.511117
C        -0.779043    2.192869    0.087556
C        -1.920350    1.573936   -0.289415
C        -3.161797    1.693462    0.481423
C        -3.533738   -1.799188    1.824138
C         3.239444   -1.225347    1.000741
C         4.572789   -1.592144    0.348326
C         5.188365   -0.529508   -0.553115
C         4.253344   -0.069804   -1.665073
C        -0.419175   -1.854879   -1.341184
O        -3.401658    2.579504    1.259625
O        -4.086764    0.711989    0.313955
O         3.357459   -0.172600    1.936047
O         5.578640    0.627633    0.195885
H        -5.426909   -0.207868   -2.634891
H        -6.127005    0.717158   -1.301003
H        -6.935134   -0.739506   -1.888748
H        -5.743260   -1.216506    0.247538
H        -5.019591   -2.135685   -1.066691
H        -3.316500   -0.314608   -1.316180
H        -2.819042   -2.365189   -0.115728
H        -1.392020   -0.356222    1.635696
H         0.837566   -0.163480    1.446767
H         2.129904   -1.726089   -0.819194
H         2.129293    0.344136   -1.925745
H         0.395938    1.176613   -1.358640
H        -0.793108    2.841972    0.957748
H        -1.910860    0.961736   -1.176854
H        -4.470559   -2.344090    1.705585
H        -3.738198   -0.894247    2.399419
H        -2.853373   -2.425184    2.403861
H         2.941407   -2.088633    1.603802
H         4.432432   -2.504216   -0.241434
H         5.281827   -1.843309    1.143572
H         6.079417   -0.955081   -1.029877
H         4.066661   -0.933486   -2.308749
H         4.786542    0.665507   -2.274735
H         0.166795   -2.777003   -1.302540
H         0.013562   -1.235366   -2.132466
H        -1.429259   -2.116584   -1.649954
H         3.739239    0.587867    1.482628
H         6.203028    0.361896    0.877094
H         3.810168    2.112082   -0.104853
H         1.729809    3.138574    0.589001
