25
0 1
Cl         2.814985   -0.816210   -0.995123
C         2.007584    0.312431    0.230458
C         0.507511    0.114292    0.128286
C         2.475865    1.715332   -0.121152
C         2.525266   -0.091920    1.606060
C        -0.362669    1.165414   -0.108491
C        -0.047444   -1.156472    0.320222
H         2.156449    2.005229   -1.121608
H         3.563767    1.758797   -0.082856
H         2.080994    2.433763    0.600953
H         2.265249   -1.122153    1.843974
H         2.072802    0.557059    2.359990
H         3.609656    0.013233    1.654244
C        -1.743590    0.978887   -0.150316
C        -2.270709   -0.288210    0.045267
C        -1.407735   -1.360323    0.279654
H         0.604824   -2.005906    0.480069
H        -2.383040    1.829482   -0.338256
O        -3.594817   -0.584798    0.024084
H        -1.833140   -2.345752    0.420014
H         0.016068    2.165689   -0.266953
C        -4.510668    0.461716   -0.224097
H        -5.499127    0.008824   -0.201349
H        -4.341785    0.913267   -1.206430
H        -4.449388    1.235529    0.547288
