20
0 2
C         0.395303    1.855468    0.619333
H         0.000170    2.861360    0.451814
C         2.446586    0.473977   -0.168162
H         3.309131    0.605312   -0.828322
H         0.917218    1.896365    1.582560
H         2.816512    0.594008    0.852639
C         1.401957    1.543875   -0.489656
H         1.945262    2.472784   -0.688187
H         0.877530    1.294153   -1.414968
C        -0.827275    0.949479    0.783674
C        -1.506426   -0.854884   -1.149339
C        -1.413316   -1.664672    0.128996
H        -2.315583   -1.214492   -1.785894
H        -0.566582   -0.892910   -1.696079
H        -2.396681   -1.832390    0.566339
H        -0.922723   -2.624138   -0.041609
S        -1.911457    0.856030   -0.690396
S        -0.377446   -0.751122    1.312576
S         1.964230   -1.251708   -0.429645
H        -1.450481    1.369299    1.572081
