26
0 1
C        -1.245618   -0.530767    1.505374
C         1.709822   -0.422656    0.665754
C         1.709822   -0.422656   -0.665754
C        -1.245618   -0.530767   -1.505374
C        -1.882857    0.346268    0.730360
C        -1.882857    0.346268   -0.730360
C         1.270980    0.618188    1.658658
C        -0.728784   -0.157893    2.851877
O         0.696864    0.001927    2.810616
H         0.604376    1.363893    1.217278
H         2.150776    1.146552    2.036094
H        -0.894315   -0.925445    3.608922
H        -1.197596    0.773744    3.191129
C         1.270980    0.618188   -1.658658
O         0.696864    0.001927   -2.810616
C        -0.728784   -0.157893   -2.851877
H         0.604376    1.363893   -1.217278
H         2.150776    1.146552   -2.036094
H        -1.197596    0.773744   -3.191129
H        -0.894315   -0.925445   -3.608922
H        -2.232921    1.267418    1.190184
H        -0.865021   -1.458809    1.092196
H        -2.232921    1.267418   -1.190184
H        -0.865021   -1.458809   -1.092196
H         2.118533   -1.301605    1.158288
H         2.118533   -1.301605   -1.158288
