12
1 1
N        -1.768298    0.057398   -0.208546
H        -1.604608    1.029275    0.088965
C        -0.622765   -0.788159    0.287124
H        -2.670693   -0.264017    0.151036
H        -1.817525    0.063766   -1.231631
C         0.682742   -0.063658    0.029832
O         0.461930    1.267870    0.121375
N         1.812323   -0.539790   -0.191436
H         1.299568    1.745065    0.015400
H         1.855244   -1.552837   -0.248232
H        -0.660625   -1.755290   -0.208620
H        -0.764844   -0.921283    1.360226
