26
0 1
O         2.978635    1.447167    0.592667
C         2.730010    0.389124    0.138882
C         1.385776   -0.191653   -0.183786
C         0.241023    0.764244    0.123716
H         1.306888   -1.129742    0.370676
H         1.401687   -0.474722   -1.240778
H         0.235043    0.992768    1.194005
C        -1.129168    0.228435   -0.291783
H         0.427266    1.712784   -0.386683
C        -1.532767   -1.030759    0.482378
H        -1.084578   -0.032758   -1.358954
C        -2.196510    1.314033   -0.125470
H        -2.209746    1.635760    0.923661
C        -3.588232    0.824464   -0.519933
H        -1.922623    2.193136   -0.716245
C        -3.976474   -0.430606    0.258641
H        -3.601386    0.601412   -1.593417
H        -4.323944    1.616543   -0.357734
C        -2.925101   -1.525188    0.091589
H        -4.955756   -0.792302   -0.065769
H        -4.071005   -0.180481    1.322047
H        -2.909056   -1.852361   -0.954837
H        -3.190079   -2.402585    0.687365
H        -1.516544   -0.801314    1.555786
H        -0.805555   -1.831583    0.323536
Cl         4.078763   -0.757909   -0.252318
