19
0 1
O        -2.927979    0.641168   -0.486014
C        -2.644950   -0.120666    0.399862
C        -1.311067   -0.790858    0.567708
C        -0.228188   -0.347720   -0.425691
C         0.198266    1.072216   -0.166862
C         1.439231    1.424323    0.140836
C         0.932806   -1.302111   -0.382981
C         2.173713   -0.950731   -0.075847
C         2.577870    0.455523    0.247612
H         0.712854   -2.340788   -0.614588
H         2.954809   -1.704473   -0.061197
H         3.010464    0.495562    1.255625
H         3.391898    0.767820   -0.418569
H        -3.402032   -0.388962    1.165772
H        -1.498556   -1.869806    0.483400
H        -0.978389   -0.636735    1.600823
H        -0.684352   -0.389509   -1.422519
H         1.667224    2.470905    0.317614
H        -0.576177    1.826782   -0.246069
