12
0 2
C         0.000000    1.232385    0.367757
C         0.000000    0.663793   -1.030348
C         0.000000    0.000000    1.215574
H        -0.874642    1.874312    0.548599
H         0.874642    1.874312    0.548599
C         0.000000   -0.663793   -1.030348
C         0.000000   -1.232385    0.367757
H         0.000000    0.000000    2.296466
H        -0.874642   -1.874312    0.548599
H         0.874642   -1.874312    0.548599
H         0.000000   -1.286042   -1.916607
H         0.000000    1.286042   -1.916607
