35
0 1
C         0.050794    2.125408   -0.964355
C        -0.308423    0.676883   -0.763438
C        -1.584704    0.306169   -0.385083
C        -2.523604    1.300975    0.248101
C        -2.233110    2.742164   -0.162445
C        -0.745004    3.056151   -0.057133
H        -0.164648    2.368407   -2.012408
H         1.125525    2.267548   -0.854021
H        -3.556924    1.039251    0.013872
H        -2.428557    1.202030    1.338185
H        -2.560799    2.898064   -1.195463
H        -2.819233    3.421721    0.459501
H        -0.421628    2.929862    0.982308
H        -0.551055    4.096700   -0.326070
C        -1.907985   -1.069178   -0.305273
H         0.283686   -0.038551   -1.321972
C        -3.257174   -1.465341   -0.013873
C        -0.985010   -1.696389    1.584744
C        -1.170445   -1.994133   -1.121847
N        -4.329225   -1.777119    0.255836
N        -0.548504   -2.719354   -1.759094
H        -1.789664   -1.482707    2.280915
C         0.092900   -0.873681    1.552622
H        -0.864312   -2.739905    1.316731
C         0.773196    0.055907    1.100943
C         1.998577    0.863279    1.155589
H         1.786211    1.929705    1.179114
H         2.562547    0.585127    2.045996
O         2.804938    0.656936   -0.011271
C         3.659831   -0.397077    0.026443
C         4.321444   -0.593895   -1.301816
O         3.826471   -1.066419    1.005706
H         4.610749    0.362296   -1.736045
H         5.185436   -1.242733   -1.183709
H         3.607788   -1.069095   -1.978673
