12
0 1
C        -1.315422   -0.643757    0.000001
C        -0.043529    0.115927    0.000004
C        -2.478866   -0.010261    0.000015
O         1.010666   -0.715311   -0.000022
O         0.060290    1.315344    0.000029
C         2.295974   -0.089091   -0.000023
H         3.018370   -0.900757   -0.000095
H         2.415378    0.532394   -0.887368
H         2.415433    0.532283    0.887393
H        -1.237875   -1.723715   -0.000016
H        -2.510845    1.073105    0.000030
H        -3.417057   -0.550487    0.000011
