34
0 1
C         0.351797   -1.030408   -0.099709
C        -0.835754   -0.307131   -0.085500
C         1.841970   -0.728326   -0.052180
C        -1.207075    1.168981   -0.070653
C         2.240170    0.642886   -0.594236
H         3.319228    0.756566   -0.476687
H         2.024826    0.712559   -1.663187
C        -0.091358    2.069196   -0.627067
H        -0.451820    3.097734   -0.577932
N         0.034121   -2.352943   -0.014257
N        -1.237831   -2.500450    0.057082
N        -1.792379   -1.286322    0.020744
C        -3.241516   -1.252725    0.108804
H        -3.572286   -0.550072    0.870588
H        -3.692176   -0.999324   -0.849169
H        -3.544236   -2.257551    0.391763
S         1.508220    2.087936    0.208947
C        -2.414983    1.466094   -0.984170
H        -3.358469    1.132717   -0.561495
H        -2.500157    2.544889   -1.127860
H        -2.291735    1.006724   -1.967341
C        -1.528400    1.594087    1.370486
H        -1.843531    2.640718    1.392963
H        -2.332139    0.992850    1.797418
H        -0.649889    1.486660    2.006289
C         2.588239   -1.761180   -0.914133
H         3.663680   -1.571884   -0.868779
H         2.393103   -2.771809   -0.562736
H         2.271788   -1.702035   -1.958168
C         2.305380   -0.871441    1.406124
H         2.059867   -1.866131    1.778977
H         3.387857   -0.732077    1.475985
H         1.823234   -0.131295    2.045943
H         0.083135    1.841592   -1.681308
