12
0 2
C        -0.211161   -0.536903   -0.045231
C         1.082128    0.055976    0.001457
O         1.287397    1.260417    0.025823
N        -1.278236    0.288102   -0.109782
H        -0.360532   -1.605536   -0.064086
C        -2.639819   -0.157166    0.067032
H        -3.323018    0.590062   -0.334784
H        -2.884808   -0.326400    1.121404
H        -2.796669   -1.088964   -0.478771
H        -1.061566    1.273117   -0.027924
O         2.096620   -0.847200    0.019004
H         2.915217   -0.336174    0.054463
