14
1 1
N        -1.321615   -0.083746    0.550953
C        -0.089539   -0.888712    0.294850
C         1.029110    0.106093    0.030408
H        -0.245281   -1.558427   -0.549223
H         0.153746   -1.483509    1.175865
O         0.867045    1.281773    0.215928
O         2.122933   -0.488998   -0.383873
C        -2.178127    0.146798   -0.657339
H         2.835874    0.157828   -0.516415
H        -2.541749   -0.812325   -1.018661
H        -1.572566    0.639504   -1.414754
H        -3.011348    0.786668   -0.375313
H        -0.977234    0.834028    0.882015
H        -1.878617   -0.504822    1.295863
