22
-1 1
C        -0.981824   -0.189479   -0.598696
C         0.102902   -1.246718   -0.363142
C         1.491640   -0.723743   -0.706522
H        -0.113694   -2.088785   -1.027072
H         0.072749   -1.627895    0.659592
C         1.930060    0.398008    0.242987
C         0.878472    1.508190    0.229189
C        -0.373932    1.181491    0.837631
O        -1.100526    0.319193   -1.728058
C        -2.231547   -0.443029    0.237828
O        -2.345334   -1.256692    1.130811
O        -3.274948    0.332718   -0.116235
O         1.096598    2.499196   -0.463073
O         2.190016   -0.159806    1.541569
H         2.877007    0.813411   -0.098355
O         2.463157   -1.767042   -0.670594
H         1.479461   -0.330297   -1.723071
H        -3.987027    0.087413    0.488470
H         2.669722   -1.891489    0.263551
H         1.365739   -0.162618    2.035637
H        -1.112459    1.975850    0.829832
H        -0.377815    0.575559    1.740414
