43
0 1
C         0.477891    2.108012    0.321320
H         0.154522    2.801560    1.116717
C         1.507726    1.154611    0.885937
C         0.063758   -0.813583    0.367812
H        -0.160562   -1.299802   -0.583182
H        -0.003290   -1.577500    1.148649
C        -1.011524    0.258647    0.598133
H        -0.994471    0.563735    1.660740
N        -0.653249    1.393012   -0.247111
C         2.529696   -0.887206   -0.131288
C         2.331703    1.532106    1.859216
C         3.844702   -0.252434   -0.264274
C         4.981451   -0.871431   -0.584802
C         1.459249   -0.219353    0.341077
C         6.297282   -0.179091   -0.749282
H         7.044124   -0.578872   -0.056443
H         6.696113   -0.322336   -1.758284
H         6.207521    0.893865   -0.569957
C        -1.749435    2.279818   -0.574163
H        -2.211437    2.708650    0.334330
H        -1.348911    3.113822   -1.155585
C        -2.393592   -0.288162    0.311811
C        -3.232276    0.290565   -0.639177
C        -2.789944    1.524757   -1.378682
H        -2.355743    1.247539   -2.344127
H        -3.652188    2.165261   -1.580163
H         0.934832    2.709031   -0.472098
C        -4.487666   -0.268570   -0.872350
H        -5.137652    0.189712   -1.610316
C        -2.841643   -1.399307    1.026138
H        -2.203692   -1.838184    1.784937
C        -4.917041   -1.383611   -0.174518
H        -5.896618   -1.803527   -0.368645
C        -4.088895   -1.949130    0.787509
H        -4.417507   -2.812726    1.352992
C         2.426829   -2.317104   -0.588806
H         2.752974   -2.417499   -1.627318
H         1.417761   -2.712392   -0.508849
H         3.077665   -2.957290    0.013937
H         3.063254    0.851203    2.274337
H         2.291776    2.534490    2.272021
H         3.876872    0.819582   -0.104647
H         4.987778   -1.946619   -0.738928
