14
0 2
C         0.446828    1.074331    0.082194
C         1.552627    0.000025    0.035612
C         0.446858   -1.074320    0.082031
C        -0.577438   -0.000004   -0.403613
C        -1.939868   -0.000071    0.151564
H         2.294292   -0.000021    0.834463
H         2.073206    0.000105   -0.923912
H         0.224763   -1.377941    1.107432
H         0.560203   -1.967438   -0.533400
H        -2.821053    0.000848   -0.476345
H        -2.084226   -0.000759    1.226450
H         0.560124    1.967532   -0.533123
H         0.224720    1.377798    1.107636
H        -0.606074    0.000118   -1.495929
