22
0 1
C        -0.012913    2.029409   -0.049013
C        -1.103083   -1.383953   -0.823681
C        -0.398887   -1.132387    0.525562
C         0.802437   -0.180938    0.426800
O         0.628310    0.875964   -0.518909
H        -0.004235   -2.091485    0.873953
O        -1.337561   -0.740123    1.506732
O        -2.160221   -0.460371   -1.069198
C         2.056163   -0.915144   -0.024402
H         0.983391    0.255010    1.416874
O         3.148772   -0.038692   -0.163418
H         1.855503   -1.440724   -0.968036
H         2.334424   -1.657892    0.724170
O        -1.350730    1.791719    0.290325
H         2.849839    0.690546   -0.717612
H        -2.876582   -0.682382   -0.465382
H        -0.405714   -1.278779   -1.653433
H        -1.506716    0.208486    1.385051
H        -1.506090   -2.399709   -0.837155
H        -1.757786    1.304238   -0.449427
H         0.472412    2.407983    0.855839
H         0.070692    2.754811   -0.860704
