43
0 1
C        -0.553883   -0.527707   -1.162727
C        -1.689217   -1.209207   -0.765510
C         1.081114   -1.521433   -0.246659
H        -2.016061   -1.982947   -1.456256
N         0.325807   -2.519859    0.262895
N        -0.797217   -2.811966    0.303128
C         2.037520   -0.826841    0.610016
C         1.979615   -0.962229    1.999641
C         2.931198    0.087919    0.051918
C         2.791548   -0.190043    2.810608
H         1.300914   -1.681025    2.443150
C         3.735937    0.863991    0.870157
H         2.995434    0.197822   -1.022493
C         3.669249    0.730051    2.249210
H         2.741998   -0.307234    3.886262
H         4.420556    1.575196    0.425095
H         4.303009    1.334759    2.886096
C        -2.732102   -0.614259    0.095243
C        -3.658506    0.462934   -0.436394
C        -3.059478   -0.957939    1.336696
C        -4.366168    0.971524    0.831569
H        -4.361365    0.020205   -1.152394
H        -3.120766    1.251543   -0.966261
C        -4.239235   -0.177660    1.852381
H        -2.571808   -1.740236    1.904331
H        -5.399673    1.269383    0.652240
H        -5.134316   -0.810953    1.866246
C         1.259107   -1.626368   -1.758958
C        -0.233441    0.896397   -0.945319
C         0.277887    1.662509   -1.991576
C        -0.403511    1.488934    0.307284
C         0.593878    2.999271   -1.793117
H         0.424078    1.207692   -2.962768
C        -0.088387    2.823229    0.498886
H        -0.767916    0.896265    1.134882
C         0.410519    3.585688   -0.549864
H         0.985597    3.583180   -2.617351
H        -0.218358    3.266873    1.478637
H         0.661924    4.627826   -0.395244
O         0.125136   -1.128101   -2.283641
O         2.190560   -2.017928   -2.382535
H        -4.097865    0.182402    2.874475
H        -3.832953    1.847688    1.207688
