16
0 1
C         1.012204   -0.139601    0.354518
C         0.680831    1.215497    0.076327
C        -0.680831    1.215497   -0.076327
C        -1.012204   -0.139601   -0.354518
H         0.575936   -0.563380    1.249518
H        -0.575936   -0.563381   -1.249518
H        -1.389153    2.023706    0.082412
H         1.389153    2.023706   -0.082412
C        -2.265165   -0.818554    0.120581
H        -3.094202   -0.628901   -0.571915
H        -2.131543   -1.901608    0.163532
H        -2.568048   -0.473869    1.110669
C         2.265165   -0.818554   -0.120581
H         3.094202   -0.628901    0.571915
H         2.131543   -1.901608   -0.163531
H         2.568048   -0.473869   -1.110669
