15
0 1
C        -1.178451   -0.517540    0.000014
O         0.000000    0.257645   -0.000004
C         1.178451   -0.517540   -0.000010
H         1.194853   -1.169151   -0.885849
H         1.194863   -1.169152    0.885828
C        -2.370223    0.411913    0.000016
H        -2.355628    1.050774   -0.884419
H        -2.355603    1.050799    0.884433
C         2.370223    0.411913   -0.000017
H         2.355629    1.050778    0.884415
H         3.300569   -0.160087   -0.000036
H         2.355603    1.050795   -0.884436
H        -3.300569   -0.160087    0.000037
H        -1.194850   -1.169144    0.885859
H        -1.194866   -1.169159   -0.885819
