29
0 1
P        -0.000005   -0.034407   -0.491496
O        -0.000024   -0.274413   -1.956679
N        -1.399264   -0.651900    0.194465
N         0.000073    1.537030    0.095300
N         1.399205   -0.652028    0.194450
C         1.682758   -0.576071    1.614786
H         1.370242   -1.482038    2.150140
H         2.759659   -0.452286    1.767383
H         1.180648    0.281903    2.058327
C         2.133270   -1.690944   -0.510638
H         3.208760   -1.521858   -0.397332
H         1.902231   -2.690393   -0.119318
H         1.881790   -1.657940   -1.568089
C        -2.133462   -1.690714   -0.510635
H        -1.882005   -1.657706   -1.568092
H        -1.902520   -2.690200   -0.119353
H        -3.208929   -1.521514   -0.397294
C        -1.682759   -0.575961    1.614813
C        -1.209618    2.336233   -0.065713
H        -1.226883    3.120303    0.695938
H        -1.251298    2.812055   -1.052854
H        -2.093190    1.713751    0.053497
C         1.209829    2.336126   -0.065764
H         1.251505    2.811951   -1.052903
H         1.227201    3.120189    0.695892
H         2.093351    1.713563    0.053399
H        -1.180555    0.281953    2.058363
H        -1.370309   -1.481973    2.150127
H        -2.759644   -0.452079    1.767451
