15
0 1
C         2.891384    0.892132    0.000090
C         1.814419   -0.164658    0.000013
O         2.067689   -1.355028    0.000108
N         0.534937    0.289415   -0.000130
H         0.317297    1.274422   -0.000082
C        -0.571674   -0.628335   -0.000059
C        -1.860835    0.143175   -0.000029
H        -0.549821   -1.285941   -0.873926
H        -0.549755   -1.285882    0.873854
O        -1.946548    1.342067    0.000016
O        -2.923680   -0.670600   -0.000050
H        -3.719469   -0.119916   -0.000014
H         2.499564    1.909545   -0.000452
H         3.519474    0.747907   -0.879372
H         3.518697    0.748571    0.880222
