13
0 1
H         2.678927    0.770316   -0.000135
O         2.294480   -0.110390   -0.000149
C         0.933382   -0.025002   -0.000060
C         0.263252    1.191959   -0.000035
C        -1.125183    1.212599    0.000055
C        -1.847008    0.028519    0.000117
C        -1.165541   -1.183312    0.000091
C         0.219056   -1.216941    0.000004
H         0.762898   -2.152825   -0.000016
H        -1.641865    2.164822    0.000075
H         0.824467    2.120922   -0.000087
H        -2.929281    0.047838    0.000186
H        -1.718726   -2.114887    0.000139
