52
0 1
C         1.464571    2.484376    0.157466
C         0.480151    1.860386    1.168136
C        -0.897948    0.904185   -1.424954
H         2.340174    1.837289    0.048701
C        -0.812764    2.698229    1.295381
H        -1.073186    2.780394    2.355545
H        -0.614148    3.723006    0.963938
H        -1.333241    0.415303   -2.299778
H         0.992874    1.943797    2.130770
C        -2.049641    2.147735    0.587386
H        -2.325702    1.217499    1.085426
H        -2.883527    2.833783    0.769630
C        -1.980031    1.885449   -0.919628
H        -2.959840    1.491812   -1.209431
H        -1.884745    2.833709   -1.457889
C         0.345617    1.616827   -1.998886
H         1.133696    0.869543   -2.149727
C         0.909043    2.800599   -1.223522
H         1.709964    3.250542   -1.818958
H         0.141067    3.574862   -1.140302
H         0.081854    1.979349   -2.998572
H         1.833045    3.422678    0.588893
C        -0.556048   -0.230497   -0.420367
H         0.173314   -0.862409   -0.950409
Si       -1.981186   -1.493611   -0.320221
C        -3.506265   -1.002839    0.675878
H        -4.212503   -1.838416    0.658197
H        -3.286506   -0.787758    1.723493
H        -4.017687   -0.134009    0.258262
C        -1.399284   -3.147456    0.380788
H        -1.340077   -3.156416    1.472085
H        -2.121518   -3.919623    0.101606
H        -0.426878   -3.443742   -0.020030
C        -2.571852   -1.844896   -2.075039
H        -3.270695   -2.685745   -2.070120
H        -3.089689   -0.993014   -2.521061
H        -1.739764   -2.111178   -2.732202
B         0.191759    0.286732    0.903669
C         1.846038   -0.460656    1.322886
H         2.394551    0.330019    1.810056
C         0.733331   -1.079473    1.909762
H         0.456112   -2.027884    1.469864
C        -0.242177   -0.360953    2.591643
H         0.000456    0.464532    3.243852
H        -1.185637   -0.854632    2.781370
C         2.554681   -1.191811    0.264876
O         2.162516   -2.196522   -0.280530
O         3.698734   -0.575119   -0.072399
C         4.435973   -1.173755   -1.141072
H         3.837136   -1.192533   -2.051585
H         5.315984   -0.550486   -1.275103
H         4.722545   -2.192950   -0.882737
