52
0 2
Si        -3.281658    0.111974   -0.099859
C        -2.082325    1.550439   -0.324742
C        -2.078071    2.573480    0.815639
C        -3.261552   -0.943366   -1.660705
C        -4.179501   -2.169111   -1.616519
C        -5.021161    0.771455    0.221366
C        -5.574873    1.664622   -0.894079
C        -2.753971   -0.956729    1.387059
C        -1.423291   -1.575369    1.183518
C        -0.154609   -0.906034    1.586162
C         0.978570   -1.069054    0.571770
C         3.402009   -0.546691   -0.012434
C         2.273704   -0.390186    1.000550
C         4.697480    0.135821    0.411912
C         5.825789   -0.022117   -0.600855
C         7.122198    0.661100   -0.178729
C         8.242967    0.495837   -1.198737
H        -1.076983    1.140152   -0.464719
H        -2.326694    2.051272   -1.267996
H        -1.821758    2.111030    1.772256
H        -1.355247    3.373666    0.639171
H        -3.058152    3.041675    0.936598
H        -2.228427   -1.258376   -1.840755
H        -3.529916   -0.307650   -2.511481
H        -4.131795   -2.744741   -2.543983
H        -3.905996   -2.844373   -0.801706
H        -5.223830   -1.883858   -1.464957
H        -5.014006    1.320577    1.169123
H        -5.690714   -0.080131    0.383253
H        -4.943991    2.542742   -1.055002
H        -5.631826    1.128710   -1.845013
H        -6.580413    2.025174   -0.664061
H        -0.337894    0.160775    1.757121
H         0.192102   -1.298665    2.556267
H         1.161802   -2.137013    0.407450
H         0.656519   -0.664988   -0.394490
H         3.079277   -0.141431   -0.978758
H         3.592703   -1.613361   -0.179633
H         2.594171   -0.797278    1.966809
H         2.083900    0.676669    1.168862
H         4.506736    1.202735    0.577906
H         5.019721   -0.268542    1.378789
H         6.017511   -1.089035   -0.766572
H         5.503701    0.381346   -1.568345
H         6.929879    1.726892   -0.014056
H         7.443110    0.257652    0.787841
H         9.159123    0.993468   -0.873572
H         8.476707   -0.560290   -1.358016
H         7.959642    0.919570   -2.165997
H        -1.360675   -2.543662    0.697277
H        -2.764013   -0.318255    2.278814
H        -3.531257   -1.714671    1.532539
