43
0 1
C         0.595159    0.568215    0.150225
C         1.641787    0.570503   -0.765573
C        -0.276730   -1.299478    0.126053
H         1.447938    1.125758   -1.675460
N         0.575008   -1.866556   -0.767097
N         1.447750   -1.513528   -1.442488
C        -1.717886   -1.440567   -0.081168
C        -2.605405   -1.072164    0.929674
C        -2.222782   -1.814005   -1.329342
C        -3.969599   -1.054752    0.687769
H        -2.232035   -0.795476    1.906978
C        -3.586171   -1.804886   -1.561315
H        -1.544274   -2.119411   -2.116786
C        -4.464465   -1.418642   -0.555689
H        -4.648081   -0.759356    1.478293
H        -3.966915   -2.101124   -2.531056
H        -5.531536   -1.409335   -0.740498
C         3.059327    0.380611   -0.466408
C         3.631871   -0.365399    0.723122
C         4.039540    0.878811   -1.225268
C         5.115107   -0.538384    0.349601
H         3.142764   -1.324427    0.906322
H         3.501449    0.224962    1.634118
C         5.405315    0.568277   -0.682304
H         3.876868    1.480328   -2.112146
H         5.254819   -1.513129   -0.122948
H         5.841549    1.458289   -0.212072
C         0.317183   -1.118700    1.523519
C        -0.555539    1.491101    0.082692
C        -1.055759    2.083483    1.239216
C        -1.184529    1.750201   -1.136146
C        -2.155478    2.928725    1.175139
H        -0.577885    1.884195    2.189466
C        -2.282478    2.590064   -1.194672
H        -0.828869    1.270265   -2.039941
C        -2.774026    3.184716   -0.038356
H        -2.529310    3.387057    2.082894
H        -2.766265    2.772546   -2.146608
H        -3.636207    3.838365   -0.085674
O         0.898575    0.091393    1.476367
O         0.279768   -1.831039    2.471879
H         6.108568    0.248718   -1.455399
H         5.774716   -0.496844    1.217035
