51
1 1
C        -2.728638    2.755464   -0.070629
C        -1.797764    1.742919    0.620243
C        -0.375626    3.265593   -0.130697
C        -1.729186    3.821410   -0.605798
H        -3.320395    2.285187   -0.854208
H        -3.417071    3.178030    0.661483
H        -1.764025    3.932222   -1.690476
H        -1.909886    4.805276   -0.172569
C        -0.725224    2.650117    1.225644
H         0.099191    2.115442    1.691147
H        -1.141418    3.376965    1.920534
H        -2.280229    1.006323    1.248902
H         0.472628    3.943161   -0.177970
N        -0.072661    2.027193   -0.891701
N        -1.026617    1.106294   -0.471825
C        -0.816933   -0.177488   -0.778578
C        -1.670171   -1.249125   -0.231569
C        -1.792118   -1.477874    1.139949
C        -2.335085   -2.087207   -1.125162
C        -2.588865   -2.509449    1.606136
H        -1.239919   -0.870506    1.846545
C        -3.140585   -3.113609   -0.655863
H        -2.226815   -1.931781   -2.192358
C        -3.269874   -3.323896    0.709166
H        -2.672534   -2.686543    2.670907
H        -3.661132   -3.753197   -1.357125
H        -3.891866   -4.130459    1.076460
H        -0.478239   -0.333836   -1.797509
H        -0.091670    2.151905   -1.900930
C         1.157304   -0.590886   -0.138937
H         0.989682   -0.748844    0.925023
C         1.833955    0.558947   -0.472522
H         2.153887    0.672237   -1.506347
C         1.435905   -1.849644   -0.925026
H         0.606113   -2.557167   -0.856762
H         1.567975   -1.599154   -1.983530
C         2.575981    1.372125    0.523275
H         2.113285    1.281061    1.509251
H         2.617618    2.430381    0.257213
C         4.019846    0.817743    0.603507
H         4.549875    1.068181   -0.320481
H         4.529074    1.361718    1.402691
C         4.134800   -0.691740    0.860726
H         5.127626   -0.863039    1.280623
H         3.436130   -0.982030    1.652403
C         2.716117   -2.521472   -0.402062
H         2.916295   -3.390084   -1.034758
H         2.526913   -2.918337    0.600631
C         3.966663   -1.630373   -0.363774
H         4.830764   -2.296800   -0.391266
H         4.030069   -1.050044   -1.291025
