26
-1 1
C         1.011217    0.925145   -0.818237
C         2.302486    0.984359    0.019178
C         2.998506   -0.294851    0.271734
C         2.369565   -1.563018   -0.335264
C         0.903358   -1.516331   -0.621508
C         0.258091   -0.373056   -0.833119
H         0.350975   -2.454292   -0.635345
C        -1.232991   -0.331057   -1.007498
C        -1.919984    0.406162    0.163800
H        -1.621755   -1.352313   -1.065604
H        -1.523632    0.182980   -1.927259
C        -3.428597    0.196153    0.042978
O        -4.108394    0.708402   -0.805751
O        -3.916934   -0.647473    0.954014
N        -1.460843   -0.112412    1.454414
H        -1.735620    1.477603    0.059651
O         4.145516   -0.398341    0.739556
O         2.772063    2.110435    0.249949
H         1.861631    0.110609    1.213979
H        -3.133303   -0.862996    1.518559
H        -0.530777   -0.518253    1.362372
H        -1.381087    0.630316    2.138795
H         2.931643   -1.764023   -1.258070
H         2.608320   -2.387492    0.339764
H         1.305565    1.186136   -1.844382
H         0.386027    1.753398   -0.477885
