24
0 2
C         0.041261   -0.194698    0.578741
C        -0.133108    1.272496    0.978692
C        -1.059886    1.884148   -0.080339
H         0.811322    1.806531    1.089211
H        -0.618008    1.288399    1.960790
C        -1.896109    0.704195   -0.625885
H        -0.473406    2.331289   -0.883640
H        -1.681344    2.674406    0.343293
C        -1.407952   -0.553383    0.118568
H        -1.735045    0.584453   -1.698350
H        -2.967509    0.846401   -0.476927
C        -1.564762   -1.822846   -0.629641
S         1.120252   -0.381627   -0.912289
C         0.534313   -1.081715    1.710406
H         1.533227   -0.791628    2.041902
H         0.573600   -2.126102    1.398825
H        -0.135387   -0.998631    2.571822
C         2.644614    0.445526   -0.391838
H         2.511795    1.521218   -0.282377
H         3.370162    0.267609   -1.185001
H         3.038919    0.023929    0.532336
H        -1.553913   -2.776240   -0.117458
H        -1.584217   -1.829007   -1.711858
H        -1.964458   -0.638937    1.061827
