52
-1 1
C         4.807920   -0.859905   -1.801578
C         3.343081   -0.429695   -1.888038
H         2.837300   -1.066487   -2.622062
H         3.272752    0.591277   -2.283713
H         5.230406   -0.911970   -2.810833
H         4.844973   -1.879078   -1.398590
C         2.603734   -0.533475   -0.571424
H         2.900721   -1.354565    0.073721
C         1.264547   -0.182168   -0.476909
H         0.753339    0.263089   -1.321081
C         3.817180    0.832133    0.555718
C         3.117099    0.977728    1.736495
H         3.479268    0.473354    2.627674
C         1.820244    1.495121    1.759527
H         1.246458    1.388851    2.674585
C         1.151881    1.862100    0.615049
H         1.725944    2.167107   -0.251181
C        -0.273417    2.322804    0.622780
H        -0.822444    1.884466    1.457661
H        -0.777097    2.040176   -0.302092
H        -0.323476    3.414905    0.714450
C         0.430725   -0.919856    0.516660
C        -0.994032   -1.007491    0.264076
O         0.992005   -1.441795    1.479622
C        -1.922044   -1.777056    1.086232
C        -1.703976   -0.474916   -0.839570
O        -1.361365    0.252611   -1.784200
O        -1.741767   -2.492591    2.056912
C        -3.165271   -0.947981   -0.737630
H        -3.312010   -1.676284   -1.548837
C        -4.172997    0.189310   -0.928225
C        -4.048271    1.240482    0.177112
H        -4.370787    0.799048    1.124397
H        -2.992760    1.486859    0.302712
C        -4.823059    2.525448   -0.099548
H        -4.509070    2.972741   -1.047379
H        -4.649263    3.263563    0.687875
H        -5.901582    2.354660   -0.153483
N        -3.212806   -1.587802    0.558222
H        -3.850152   -2.349158    0.733473
C        -5.593068   -0.363754   -1.039291
H        -6.322393    0.419406   -1.259014
H        -5.893988   -0.843419   -0.102146
H        -5.660559   -1.109861   -1.836417
H        -3.896875    0.659778   -1.878504
C         5.189589    0.211491    0.493278
H         5.904024    0.833277    1.047053
H         5.173454   -0.761837    0.996234
H         3.627528    1.564496   -0.222414
C         5.686309    0.047605   -0.942296
H         6.709656   -0.342510   -0.933689
H         5.738243    1.039380   -1.409122
