33
1 1
N         0.608670    1.922774   -0.058101
C        -0.604506    1.162829    0.076551
C        -0.765524    0.283068    1.144008
C        -1.940946   -0.418684    1.267114
C        -2.972538   -0.244839    0.334715
C        -2.809070    0.654597   -0.719035
C        -1.620401    1.359622   -0.840306
O        -4.072804   -0.975716    0.544769
C        -5.177479   -0.842804   -0.342497
C         1.844715    1.512675   -0.048690
C         2.218725    0.103625   -0.105675
C         3.366533   -0.328351    0.569148
C         3.758339   -1.652935    0.496050
C         3.036400   -2.547016   -0.283203
C         1.915360   -2.118702   -0.985108
C         1.495641   -0.806383   -0.888632
C         2.907048    2.556867    0.002968
H        -4.898543   -1.130951   -1.358906
H         1.366162   -2.812788   -1.607867
H        -5.564041    0.179025   -0.333113
H        -5.938343   -1.521808    0.031019
H         4.632872   -1.985994    1.039506
H         3.352239   -3.580629   -0.350602
H         3.649887    2.376135   -0.773943
H         3.423903    2.502822    0.964384
H         2.500527    3.562343   -0.103273
H         3.943459    0.359519    1.173046
H         0.623184   -0.484365   -1.439494
H         0.023956    0.151452    1.872774
H        -1.490971    2.053265   -1.663171
H        -3.593649    0.814121   -1.443709
H        -2.099844   -1.105594    2.087646
H         0.477160    2.928345   -0.110194
