27
-1 1
C        -0.413066   -0.563227   -0.545527
C         1.033072   -0.630152   -0.983314
C        -0.358747    0.653742   -0.014129
C         1.942262   -1.547024   -0.173167
H         2.941646   -1.561107   -0.624588
C         1.143427    0.896579   -0.332539
C         2.016432   -0.879413    1.213378
H         1.117748   -1.132172    1.786115
C         2.046677    0.621903    0.915399
H         1.752126    1.237969    1.772078
H         3.051132    0.934049    0.610840
H         1.600727   -2.589216   -0.112841
H         2.877715   -1.225198    1.796301
O         1.471146    1.938834   -1.058887
C        -1.617073   -1.450619   -0.569257
H        -1.372956   -2.471842   -0.249863
H        -2.012869   -1.540835   -1.591327
C        -1.507714    1.405216    0.565567
H        -1.411323    1.480489    1.658062
H        -1.513194    2.431992    0.185186
C        -2.808947    0.674545    0.193757
H        -3.648948    1.046119    0.792041
H        -3.043963    0.893405   -0.854263
C        -2.685526   -0.848068    0.359538
H        -2.406811   -1.063121    1.398130
H        -3.657693   -1.323997    0.187101
H         1.212718   -0.628088   -2.060102
