52
0 1
C         0.026208   -2.360955   -0.416424
H        -0.087820   -3.031802   -1.275827
H         0.145935   -3.015624    0.471946
C        -1.229110   -1.561383   -0.262985
C         0.085750    0.480065    0.114398
H         0.356261    1.111413   -0.735513
H        -0.015703    1.138785    0.976433
C         1.240375   -0.486184    0.382338
H         1.083566   -0.933818    1.384231
N         1.196633   -1.538116   -0.622738
C        -2.535062    0.489333   -0.054373
C        -2.518241   -2.330146   -0.290425
C        -3.609763   -0.214454    0.320022
C        -3.543066   -1.686078    0.640246
C        -1.226145   -0.233554   -0.103024
C        -3.226850   -1.928620    2.120413
H        -3.220127   -2.998060    2.348609
H        -2.249997   -1.515640    2.379953
H        -3.972820   -1.451201    2.759157
C         2.573450    0.236596    0.415228
C         2.413599   -2.321638   -0.690772
H         2.249054   -3.152668   -1.380304
H         2.668692   -2.758250    0.292732
C         3.547742   -1.443281   -1.181616
H         3.353104   -1.165436   -2.221969
C         3.663708   -0.204003   -0.334367
H         4.491414   -1.994438   -1.162314
C         4.865491    0.499272   -0.272907
H         5.709191    0.148061   -0.857783
C         2.724611    1.357494    1.232019
H         1.892704    1.693889    1.839413
C         5.000290    1.622215    0.524045
H         5.942784    2.155173    0.559845
C         3.921812    2.049667    1.288307
H         4.015037    2.918252    1.928992
C        -2.657607    1.945882   -0.529314
C        -1.877113    2.937997    0.354484
H        -0.800513    2.869379    0.220965
H        -2.106167    2.783202    1.411602
H        -2.167137    3.959495    0.096186
C        -4.117744    2.416531   -0.529858
H        -4.538768    2.437496    0.477785
H        -4.749238    1.783633   -1.155511
H        -4.166163    3.432111   -0.928282
C        -2.150219    2.031026   -1.979491
H        -1.114718    1.706433   -2.076278
H        -2.214654    3.060522   -2.341765
H        -2.757897    1.401515   -2.633383
H        -2.340337   -3.371836   -0.003836
H        -2.911320   -2.348671   -1.315602
H        -4.522696   -2.125316    0.430502
H        -4.580789    0.255514    0.393508
