33
0 1
C        -2.897864    1.427774   -0.667339
C        -1.562634    2.092278   -0.872965
C        -0.407101    1.504032   -0.584898
N        -0.331989    0.209708   -0.060111
C        -1.506182   -0.415890    0.273631
C        -2.720812    0.091570    0.019719
C        -3.873749   -0.736863    0.436529
O        -3.759642   -1.831825    0.965112
N        -5.106732   -0.208691    0.175539
C         0.941704   -0.363914    0.275562
C         1.887869   -0.565180   -0.911178
C         3.242003   -0.510727   -0.239529
C         3.031750    0.589353    0.793274
O         1.652940    0.463214    1.184887
H         0.735358   -1.336750    0.730935
C         3.920762    0.510871    2.009058
H         3.169918    1.554187    0.289859
H         3.692387    1.320763    2.702783
H         4.966675    0.594835    1.707051
H         3.775055   -0.439365    2.526827
O         4.314056   -0.180624   -1.089932
H         3.422411   -1.470920    0.261707
O         1.710515   -1.789130   -1.585504
H         1.809824    0.277789   -1.607233
H         0.898759   -1.760996   -2.100102
H         4.446982   -0.903311   -1.710151
H        -5.908455   -0.727414    0.493761
H        -5.237444    0.721360   -0.179266
H        -1.424398   -1.378853    0.761757
H        -1.543332    3.102219   -1.262202
H         0.541273    2.006829   -0.709989
H        -3.412360    1.308925   -1.631750
H        -3.539048    2.090674   -0.069670
