28
0 1
C        -0.452669   -1.652327    0.772017
C        -1.438372   -0.582074    0.361216
C        -2.565801   -0.897974   -0.386557
C        -1.234871    0.739151    0.751236
C        -3.484767    0.085215   -0.732652
H        -2.726199   -1.922120   -0.706729
C        -2.145254    1.723804    0.400515
H        -0.347857    0.988942    1.321148
C        -3.275661    1.398860   -0.340337
H        -4.359591   -0.175151   -1.316496
H        -1.975007    2.749206    0.706774
O         0.892502   -1.241338    0.679228
C         1.354026   -1.102497   -0.653441
H         0.699549   -0.418022   -1.208735
H         1.317645   -2.080205   -1.154030
H        -3.987204    2.168676   -0.613631
C         2.769127   -0.566609   -0.625073
H         3.152940   -0.562396   -1.651358
H         3.397103   -1.259103   -0.055222
C         2.872339    0.834381   -0.030629
H         2.226188    1.512467   -0.599221
H         2.479380    0.814757    0.988602
C         4.300293    1.366857   -0.026646
H         4.706898    1.418373   -1.040548
H         4.352211    2.369458    0.403095
H         4.958468    0.720217    0.559880
H        -0.605467   -1.916425    1.820818
H        -0.619409   -2.558693    0.173935
