21
0 1
C        -2.271412    0.007798    0.000021
C        -2.836664   -0.614559    1.265040
C        -0.754924    0.012642    0.000002
C        -2.836699   -0.614947   -1.264790
H        -2.458578   -0.088276    2.141927
H        -2.547793   -1.663733    1.341124
H        -3.925773   -0.551725    1.254337
C        -0.051628   -1.189656    0.000160
C        -0.040762    1.203969   -0.000167
H        -2.547839   -1.664147   -1.340558
H        -2.458633   -0.088939   -2.141850
H        -3.925807   -0.552101   -1.254078
C         1.347622    1.200521   -0.000179
C         2.023428   -0.006061   -0.000020
C         1.333404   -1.207637    0.000151
H        -0.582884   -2.134105    0.000295
H         1.874913   -2.144137    0.000274
H        -0.575128    2.143521   -0.000291
H         1.900279    2.130626   -0.000311
Cl         3.770859   -0.018455   -0.000033
F        -2.703506    1.352705   -0.000180
