22
0 1
C         0.773503   -1.008950    0.923619
C         0.349631   -0.070851    1.850594
C         1.176430    1.282179    0.161913
C         0.591144    1.236821    1.423440
H         1.592003    2.177306   -0.283062
H         0.273343    2.115534    1.968823
H        -0.198625   -0.323759    2.748024
H         0.767226   -2.081447    1.060637
S         2.093966   -0.253086   -0.019862
O         2.183341   -0.730831   -1.431658
C        -2.434213    0.652327    0.089191
C        -0.630172   -0.668305   -0.830129
C        -0.390597    0.651203   -1.189534
H        -2.285504    0.908100    1.142329
H        -0.176230   -1.517337   -1.320486
H         0.247811    0.885409   -2.031594
H        -3.505209    0.699744   -0.105654
C        -1.580849    1.528536   -0.836443
H        -1.298892    2.480550   -0.384988
H        -2.124866    1.763467   -1.755523
C        -1.921325   -0.768113   -0.118511
O        -2.482821   -1.777579    0.235963
