41
1 1
C        -1.636549   -2.663014   -0.497989
C        -0.969804   -1.644414    0.441837
C        -2.982165   -0.769486    0.140852
C        -3.046006   -2.042060   -0.720748
H        -1.069481   -2.787437   -1.418926
H        -1.695496   -3.633990   -0.005878
H        -3.250920   -1.812985   -1.767341
H        -3.842698   -2.697855   -0.369437
C        -2.135913   -1.215023    1.335531
H        -1.894392   -0.412802    2.031450
H        -2.577696   -2.051246    1.873804
H        -0.042494   -1.959140    0.902084
H        -3.926045   -0.269100    0.341167
N        -2.029419    0.183304   -0.485620
N        -0.785079   -0.417674   -0.368723
C         0.277995    0.395058   -0.512893
C         1.647955   -0.091803   -0.246693
C         2.052668   -0.531976    1.014317
C         2.572902   -0.065459   -1.288905
C         3.352507   -0.962853    1.218477
H         1.363218   -0.512303    1.849585
C         3.871837   -0.505786   -1.084926
H         2.273838    0.295721   -2.266112
C         4.261787   -0.956720    0.167553
H         3.661524   -1.295341    2.201335
H         4.580583   -0.489722   -1.902985
H         5.278066   -1.292873    0.330218
H         0.195861    1.045550   -1.379590
H        -2.249632    0.424170   -1.449977
C        -1.440760    2.194708    0.569193
H        -2.098598    1.822041    1.343048
C        -0.074682    2.005343    0.717479
H         0.229990    1.543829    1.651859
C         0.923289    2.985447    0.141055
H         0.908887    3.918186    0.708860
H         1.935904    2.585752    0.189303
H         0.709108    3.237237   -0.899478
C        -2.042556    3.152635   -0.401294
H        -3.106108    2.967501   -0.548414
H        -1.936906    4.174414   -0.020084
H        -1.540057    3.133397   -1.371172
