37
0 1
C        -0.734047    4.610883   -0.847598
O         0.020673    3.430769   -0.629617
H        -1.628818    4.400474   -1.437397
C         1.634834    1.059397   -0.159683
C         0.366684    1.113763    0.259007
C         2.558216   -0.077133   -0.037782
C         2.131459   -1.363036    0.305723
C         3.917855    0.125146   -0.279184
C         3.037676   -2.402897    0.420221
C         4.828857   -0.914312   -0.161017
C        -2.480216    1.489052    1.219099
C         4.391568   -2.182623    0.191240
C        -2.969697    0.395987    0.326251
C        -2.733909   -0.897647    0.534871
C        -3.211250   -1.975255   -0.317337
C        -2.954002   -3.263926   -0.098759
C        -3.419818   -4.391432   -0.960225
O        -1.799055    2.506306    0.491076
B        -0.513019    2.374643    0.043597
H         1.077644   -1.553616    0.466808
H         4.261401    1.115197   -0.557625
H         2.688086   -3.394433    0.682538
H         5.880721   -0.733869   -0.347484
H        -1.839180    1.083589    2.007286
H        -3.321733    1.990642    1.703187
H         5.098605   -2.998515    0.280368
H        -2.572319   -4.961397   -1.352298
H        -4.008052   -4.031032   -1.805667
H        -4.035246   -5.093368   -0.389797
H        -0.098046    5.308707   -1.390973
H        -1.041989    5.060370    0.098856
H        -2.358303   -3.532818    0.771782
H        -3.805687   -1.687981   -1.181924
H        -3.551367    0.712242   -0.536174
H        -2.139135   -1.193388    1.397707
H         2.050655    1.943018   -0.637616
H        -0.050357    0.240562    0.749808
