36
1 1
C        -1.203806   -1.350609    0.041136
C        -1.203834    1.350597    0.041139
C         0.321855    1.248548    0.111662
C         0.848064    0.000014    0.818895
C         0.321881   -1.248529    0.111659
H         0.735590    1.268298   -0.896935
H         0.672584    2.145581    0.625296
H         0.517249    0.000009    1.859510
H         0.735615   -1.268268   -0.896938
H         0.672627   -2.145556    0.625291
N        -1.770438   -0.000011   -0.400905
O        -2.723748   -0.000020   -1.092918
C        -1.636817   -2.383949   -0.989381
H        -1.150328   -3.324567   -0.730834
H        -2.713458   -2.544152   -0.989455
H        -1.316419   -2.105286   -1.993965
C        -1.851813   -1.656949    1.403313
H        -2.937585   -1.564873    1.358630
H        -1.613824   -2.695837    1.632884
H        -1.470842   -1.039993    2.212378
C        -1.636865    2.383930   -0.989377
H        -2.713510    2.544112   -0.989450
H        -1.150395    3.324557   -0.730828
H        -1.316461    2.105275   -1.993961
C        -1.851847    1.656922    1.403316
H        -1.613880    2.695815    1.632889
H        -2.937617    1.564823    1.358632
H        -1.470864    1.039972    2.212380
N         2.301120    0.000032    0.872224
C         3.092968    0.000036   -0.245363
C         4.577751   -0.000027   -0.006290
H         5.006177   -0.878796   -0.489074
H         5.006413    0.878084   -0.490044
H         4.852186    0.000499    1.048339
O         2.609093    0.000048   -1.362609
H         2.743992    0.000035    1.775992
