22
0 1
C        -1.849055   -1.365107    0.000046
C        -1.347750   -0.063062    0.000043
C         0.017520    0.207004   -0.000054
C         0.919007   -0.849233   -0.000140
C         0.441957   -2.157686   -0.000133
C        -0.920109   -2.398862   -0.000044
H         0.375163    1.225301   -0.000059
H        -1.274241   -3.423032   -0.000044
N         2.314180   -0.665950   -0.000246
C         2.998624    0.507333   -0.000180
O         2.541482    1.622790   -0.000049
N        -2.270673    0.987744    0.000133
C        -2.311341    2.184745    0.000309
O        -2.469785    3.338184    0.000469
O         4.329608    0.254298   -0.000288
H         4.773866    1.110914   -0.000243
H         2.882318   -1.498527   -0.000344
C        -3.327078   -1.622804    0.000160
H        -3.804271   -1.180996    0.877709
H        -3.804479   -1.180588   -0.877067
H        -3.532612   -2.693325   -0.000059
H         1.138614   -2.988445   -0.000201
