24
0 1
C         2.134632    0.061724   -0.701143
C         2.424750    0.142606    0.800206
O         2.824741   -0.762409    1.480636
O         2.227818    1.380903    1.277514
H         2.439896    1.370944    2.221306
N         1.030426    0.884511   -1.144546
C        -0.211685    0.439321   -0.642030
C        -0.430778   -0.893846   -0.392426
N         0.553606   -1.801946   -0.634790
C         1.861306   -1.386968   -1.108590
H         2.617981   -2.041165   -0.679268
H         1.916591   -1.446432   -2.198020
C        -1.231279    1.384097   -0.360025
N        -2.417258    0.791236    0.118783
C        -2.548228   -0.542030    0.342114
N        -1.604577   -1.393923    0.098460
O        -1.159950    2.598800   -0.484146
N        -3.731855   -0.968777    0.891942
H        -3.835609   -1.971807    0.889614
H        -4.569193   -0.457644    0.661083
H        -3.138777    1.443053    0.393661
H         1.150892    1.876213   -0.978097
H         0.426031   -2.717607   -0.237846
H         3.046616    0.398956   -1.202053
