21
0 2
C        -0.042444   -1.251477   -0.396078
C        -0.815699    0.034990   -0.162494
C         1.309069   -1.227454    0.314622
C         2.131020   -0.021360   -0.135403
C         1.394670    1.290083    0.154786
C        -0.025006    1.264483   -0.304337
C        -2.273639    0.059705   -0.521651
C        -1.891084    0.014446    0.926393
H         0.122611   -1.374216   -1.472794
H        -0.638258   -2.107473   -0.067447
H         1.854569   -2.153594    0.114821
H         1.151286   -1.179176    1.398466
H         2.318114   -0.099666   -1.211950
H         3.106908   -0.016227    0.356951
H         1.925579    2.135716   -0.290954
H         1.418835    1.464573    1.244761
H        -0.552641    2.203995   -0.435150
H        -2.691552   -0.835923   -0.965823
H        -2.679724    0.984785   -0.912715
H        -2.031543   -0.913544    1.468046
H        -2.025498    0.910249    1.518764
