15
-1 1
O        -2.943995   -0.974048   -0.397166
C        -2.068427   -0.193757    0.013785
O        -2.202626    0.861064    0.681250
C        -0.610205   -0.600319   -0.359238
C         0.448006    0.336690    0.222912
H        -0.528929   -0.605461   -1.449699
H        -0.452700   -1.621601   -0.011215
N         0.313283    1.662132   -0.355613
C         1.856078   -0.159858    0.039979
H         0.293480    0.337354    1.315620
O         2.804958    0.485730   -0.331612
O         2.013973   -1.455711    0.410350
H         2.953133   -1.648408    0.293205
H        -0.611786    1.981234   -0.070226
H         1.022634    2.289141    0.004398
