41
1 1
C         2.040222   -1.612672    1.191093
C         1.164935   -1.935649   -0.021738
C         2.683925   -0.551447   -0.866440
C         3.124520   -0.670380    0.600340
H         1.495437   -1.178896    2.026726
H         2.466358   -2.547559    1.554549
H         3.178884    0.287593    1.108004
H         4.117255   -1.118224    0.654892
C         2.191231   -1.973738   -1.157199
H         1.762243   -2.091142   -2.151527
H         2.949000   -2.736442   -0.986940
H         0.466098   -2.761877    0.084918
H         3.421096   -0.147863   -1.554285
N         1.404296    0.165341   -1.047916
N         0.396108   -0.690315   -0.439887
C        -0.416632    0.097416    0.597096
C        -1.874847   -0.000395    0.241729
C        -2.370633    0.583086   -0.925148
C        -2.741357   -0.697093    1.076524
C        -3.712451    0.464116   -1.249576
H        -1.716631    1.146463   -1.582890
C        -4.087951   -0.807391    0.755935
H        -2.366791   -1.149748    1.988018
C        -4.572835   -0.230225   -0.407608
H        -4.090611    0.921131   -2.155262
H        -4.756515   -1.345039    1.416214
H        -5.622313   -0.316625   -0.659121
C         1.096249    1.556341   -0.672522
H         0.462058    1.936097   -1.478417
C         0.211723    1.508836    0.601731
H        -0.593676    2.230783    0.466057
C         2.325415    2.445512   -0.632776
H         2.852983    2.406616   -1.586547
H         2.015036    3.479130   -0.476646
H         3.021580    2.181703    0.161168
C         0.889169    1.832858    1.929597
H         1.301529    2.841645    1.921220
H         0.155820    1.790502    2.737155
H         1.695038    1.143332    2.180328
H        -0.254622   -0.392402    1.552416
H        -0.266176   -0.959419   -1.171649
