61
1 1
C         0.031439   -2.587645   -0.790679
C         0.044410   -1.416041    1.581902
C         1.505873   -1.050449    1.309770
C         2.227955   -2.059498    0.419463
C         1.503275   -2.189182   -0.917372
H         1.553677   -0.071252    0.832061
H         2.018487   -0.970197    2.270524
H         2.240732   -3.031191    0.916945
H         1.579000   -1.233886   -1.436426
H         2.001971   -2.936018   -1.538444
N        -0.607130   -1.756068    0.279815
O        -1.878626   -1.694045    0.242158
C        -0.678626   -2.314638   -2.115984
H        -0.612044   -1.264551   -2.399796
H        -0.180713   -2.891532   -2.895352
H        -1.723836   -2.619440   -2.087281
C        -0.145605   -4.075325   -0.446673
H        -1.190849   -4.293290   -0.224981
H         0.150443   -4.671502   -1.310901
H         0.462440   -4.392160    0.397484
C        -0.674595   -0.232123    2.219068
H        -0.179610    0.003641    3.161240
H        -0.622182    0.647080    1.580517
H        -1.717567   -0.462189    2.431818
C        -0.089299   -2.619991    2.533197
H         0.247354   -2.320647    3.526400
H        -1.131692   -2.931886    2.605919
H         0.506277   -3.475540    2.224933
C        -2.609998    0.400234   -0.986583
H        -2.939783   -0.125376   -1.882730
H        -2.264882   -0.713750   -0.338043
O        -3.627452    0.945976   -0.245125
C        -1.383928    1.116545   -1.009073
H        -0.624983    0.758891   -1.691273
C        -1.153355    2.212520   -0.229268
H        -1.987189    2.570828    0.367389
C         0.057455    2.977315   -0.143742
C         0.021581    4.206396    0.537887
C         1.274490    2.535817   -0.688838
C         1.159001    4.981545    0.646507
H        -0.912195    4.547216    0.970105
C         2.412082    3.304953   -0.562608
H         1.356189    1.574798   -1.177031
C         2.354418    4.531087    0.095218
H         1.121729    5.932255    1.162535
H         3.344304    2.932561   -0.965291
H         3.248961    5.135092    0.187233
C        -4.851177    0.287844   -0.294758
O        -4.975826   -0.730504   -0.898610
C        -5.878582    1.034806    0.482640
H        -5.540440    1.170969    1.510785
H        -6.019711    2.025275    0.046755
H        -6.814906    0.484196    0.464527
N         3.633740   -1.711704    0.234591
C         4.076397   -0.588524   -0.389686
C         5.571721   -0.423653   -0.472562
H         5.849090   -0.291386   -1.518460
H         5.850801    0.486713    0.059419
H         6.129439   -1.262570   -0.056985
O         3.312204    0.244048   -0.854852
H         4.323423   -2.352495    0.590037
