12
0 2
C         1.107538   -0.669471    0.117194
C         0.946303    0.834360    0.194710
C        -0.318160   -0.731434   -0.454705
H         1.278198   -1.225096    1.044976
H         1.867474   -0.970142   -0.610630
C        -0.421843    0.806721   -0.351804
H         1.681614    1.624795    0.221177
C        -1.291978   -0.116268    0.483862
H        -0.628204   -1.353100   -1.283452
H        -1.129418   -0.171350    1.555344
H        -2.330892   -0.159627    0.177663
H        -0.869935    1.511080   -1.040623
