43
0 1
C        -0.186078   -0.901891   -0.996871
C         2.107901   -0.675559   -0.131856
C        -0.725170   -0.016367   -0.079293
H        -0.408305   -0.140911    0.945642
C         2.040664    0.772563    0.033454
C         1.109034   -1.372213   -0.810246
C         3.367620    1.507312    0.024764
H         1.433700   -2.278536   -1.313285
H        -0.729290   -1.168074   -1.896370
C         0.844279    2.847550   -0.032773
C         3.385842   -1.393687    0.008300
C        -1.993397    0.726438   -0.263512
H        -1.967086    1.584779    0.418772
C        -2.230000    1.221034   -1.693127
H        -1.372129    1.794645   -2.052628
H        -2.381034    0.395818   -2.391331
H        -3.112218    1.861603   -1.747759
N         0.923706    1.409540    0.112774
Si       -3.456440   -0.322781    0.397448
C        -4.974351    0.781617    0.443859
C        -3.761662   -1.785562   -0.732866
C        -3.044607   -0.915284    2.128220
H        -4.026528   -1.469106   -1.744418
H        -4.586225   -2.395112   -0.354072
H        -2.878414   -2.424182   -0.798900
H        -5.254273    1.128092   -0.553521
H        -4.808565    1.661807    1.070306
H        -5.830774    0.240862    0.855030
H        -0.202464    3.121133   -0.175502
H         1.414489    3.238144   -0.882227
H         1.187342    3.355391    0.874609
H        -2.787417   -0.081933    2.787274
H        -2.202178   -1.610510    2.122825
H        -3.897816   -1.434473    2.572198
C         4.650933   -0.614839    0.308030
C         4.395615    0.770110    0.875005
O         3.455483   -2.602292   -0.137420
H         3.729398    1.585713   -1.007269
H         3.234104    2.522910    0.394428
H         4.023524    0.693335    1.901604
H         5.324160    1.343619    0.917336
H         5.271519   -1.228973    0.961614
H         5.187090   -0.532880   -0.645185
