39
1 1
C         1.737334   -0.864522   -0.417892
C         1.364871    0.460783   -0.193021
C         2.363616    1.412212   -0.053153
C         3.705513    1.044267   -0.131226
C         4.033094   -0.295860   -0.359013
C         3.054830   -1.266009   -0.515292
H         2.103675    2.449751    0.118762
H         5.075557   -0.582985   -0.423987
H         3.326500   -2.296170   -0.709120
C        -0.092146    0.641581   -0.142645
C        -0.810331    1.812725    0.039653
C        -0.768891   -0.558897   -0.321505
C        -2.206118    1.736918    0.044892
H        -0.299262    2.754340    0.168314
C        -2.160053   -0.649073   -0.314320
C        -2.877863    0.516753   -0.128066
H        -3.957480    0.530464   -0.108704
S         0.312475   -1.922839   -0.595041
O        -2.671725   -1.880772   -0.472075
O        -3.008421    2.792845    0.212541
C         4.790823    2.073745   -0.002236
H         5.184958    2.335580   -0.987489
H         4.422249    2.987605    0.462713
H         5.623073    1.696989    0.593324
C        -4.091445   -2.028339   -0.547170
H        -4.269421   -3.086739   -0.712672
H        -4.559791   -1.716334    0.388048
H        -4.491688   -1.451838   -1.382803
C        -2.439604    4.084890    0.395023
H        -1.849381    4.376824   -0.476608
H        -3.280989    4.762430    0.506588
H        -1.824419    4.115613    1.297299
C         0.259198   -2.879962    0.979769
C         0.400623   -2.047038    2.232668
H         0.338236   -2.711490    3.096031
H         1.361258   -1.533751    2.272790
H        -0.398694   -1.311077    2.317926
H        -0.698366   -3.398091    0.915946
H         1.054831   -3.617328    0.861766
