27
-1 1
C         0.399531    0.678456   -0.515370
C        -0.911280    1.225941   -0.927031
H        -0.925146    1.842565   -1.830617
C         0.277734   -0.591280   -0.132005
C        -1.790886    1.733614    0.191662
H        -2.758220    2.028717   -0.237299
C        -1.128518   -1.061292   -0.450606
C        -2.027161    0.627162    1.236430
H        -1.152363    0.564857    1.892610
C        -2.224236   -0.723441    0.555312
H        -2.259000   -1.527482    1.307396
H        -3.167716   -0.760953    0.003554
H        -1.426131    2.630421    0.743262
H        -2.881355    0.867975    1.881714
O        -1.318484   -1.958745   -1.282006
C         1.723783    1.401844   -0.460217
H         1.688734    2.171343    0.324205
H         1.878739    1.943338   -1.400921
C         1.332905   -1.429076    0.527897
H         0.935431   -1.933429    1.418516
H         1.645796   -2.233212   -0.152201
C         2.533403   -0.557697    0.912406
H         2.286590    0.010933    1.817256
H         3.400935   -1.182261    1.155037
C         2.881389    0.430268   -0.203104
H         3.800314    0.975412    0.042194
H         3.081285   -0.135263   -1.120912
