35
0 1
C         0.258597    1.184225    1.312044
N        -0.379053   -0.068631    0.945732
C         0.257835   -1.306550    1.349720
C         1.255583   -1.871292    0.336684
C         2.523086   -1.070766    0.241916
C         3.002194    1.006159   -0.289139
C         1.651050    1.384562   -0.864168
C         0.702244    2.049792    0.131694
C         3.405490   -1.107319   -0.868659
C         3.928181    0.155031   -0.955548
H         3.411400    1.833425    0.306221
H         2.962119   -0.797317    1.193054
C        -1.623129   -0.083864    0.336514
C        -2.144952   -1.258642   -0.232355
C        -3.398269   -1.271721   -0.821765
C        -4.175979   -0.124329   -0.881034
C        -3.667862    1.043981   -0.331756
C        -2.418371    1.072370    0.265245
H        -0.401709    1.774976    1.959577
H         1.128989    0.931860    1.916647
H         0.775808   -1.129584    2.297778
H        -0.515162   -2.046536    1.562108
H         0.776791   -1.947917   -0.642620
H         1.515083   -2.894249    0.646432
H         1.834626    2.121460   -1.658094
H         1.170299    0.532729   -1.346220
H         1.180316    2.945340    0.545297
H        -0.173951    2.398918   -0.418078
H         3.556732   -1.960288   -1.524724
H         4.901078    0.457344   -1.333427
H        -1.563401   -2.169474   -0.232527
H        -3.764899   -2.197441   -1.250346
H        -5.152205   -0.139153   -1.348183
H        -4.253946    1.955460   -0.360938
H        -2.068784    2.001048    0.691556
