31
0 1
C         0.772835    0.355119   -0.449429
C        -0.704163    0.104399   -0.214855
C        -1.476705   -0.524553   -1.185434
C        -1.314950    0.502333    0.971302
C        -2.824603   -0.777215   -0.969870
H        -1.018759   -0.819461   -2.123339
C        -2.662803    0.256802    1.188831
H        -0.726562    1.020535    1.717845
C        -3.421266   -0.389314    0.221301
H        -3.410678   -1.269760   -1.736641
H        -3.124316    0.573593    2.116687
H        -4.474006   -0.580309    0.391277
O         1.174466    1.598904    0.097332
C         0.689796    2.716915   -0.609960
H        -0.404626    2.761277   -0.600870
H         1.087243    3.603935   -0.118486
H         1.033221    2.700441   -1.652188
C         1.719092   -0.731004    0.120727
C         3.148724   -0.380114   -0.305728
H         3.450204    0.586586    0.096634
H         3.847450   -1.139274    0.054049
H         3.233316   -0.338212   -1.395655
C         1.643374   -0.786187    1.648188
H         0.655574   -1.099754    1.990013
H         2.370782   -1.507834    2.028089
H         1.868859    0.187493    2.085094
C         1.346264   -2.097043   -0.460448
H         0.350546   -2.413981   -0.147227
H         1.371841   -2.087294   -1.553995
H         2.061369   -2.849647   -0.120483
H         0.939242    0.379603   -1.537209
