43
0 1
C         4.763277   -1.983414   -0.892725
C         3.571892   -2.442172   -1.437876
C         2.360651   -1.937444   -0.994961
C         2.318107   -0.963032    0.007829
C         3.521887   -0.504707    0.552443
C         4.729155   -1.014319    0.100178
H         5.710614   -2.377711   -1.239817
H         3.583842   -3.196818   -2.215156
H         1.439061   -2.300932   -1.431821
H         3.506049    0.243356    1.330450
H         5.652988   -0.648799    0.532448
C         1.011070   -0.438816    0.433589
C         0.809451    0.462050    1.579438
O         1.624940    0.913627    2.323563
O        -0.556805    0.689031    1.825029
N        -0.103009   -0.968689    0.021205
N        -0.765823   -1.849079   -0.449195
C        -1.259591    0.964115    0.689118
C        -2.482263    0.397829    0.330696
H        -3.100247    1.062997   -0.263636
C        -0.825677    2.195313   -0.003388
C        -1.061804    2.357390   -1.370578
C        -0.168009    3.209895    0.697373
C        -0.663062    3.513450   -2.019852
H        -1.530903    1.557316   -1.929693
C         0.226636    4.365790    0.043465
H         0.023183    3.090693    1.755424
C        -0.019233    4.521815   -1.313929
H        -0.841478    3.622645   -3.082594
H         0.728454    5.149070    0.598118
H         0.296155    5.424492   -1.822923
C        -2.883671   -0.920001    0.334432
C        -4.143234   -1.376029   -0.363661
C        -2.083059   -2.062425    0.651431
C        -3.803439   -2.797096   -0.834056
H        -4.448550   -0.704709   -1.168537
C        -2.833712   -3.306303    0.238199
H        -1.527869   -2.098246    1.581151
H        -4.683452   -3.429366   -0.952038
H        -3.289758   -2.751169   -1.796608
H        -2.154854   -4.083147   -0.116904
H        -3.375898   -3.704291    1.101912
H        -4.962838   -1.403579    0.364423
