45
0 1
C        -1.818134    3.190624   -0.333852
H        -2.043497    3.948716    0.413211
H        -0.998937    1.968089    1.248595
C        -1.022616   -0.362533   -0.249253
H         0.076810   -0.555340   -2.013337
C         1.369029   -2.661969   -1.590669
H         2.838868   -1.571949   -0.373255
H         2.985954   -1.438923   -3.438046
B        -2.160740   -1.934436    1.232731
C        -2.782400   -2.764236    0.064969
H        -3.568306   -3.438596    0.409398
C        -2.369105   -2.272475    2.747159
H        -1.794508   -1.633600    3.419889
C        -2.772552    1.189310   -0.841477
O        -3.590614    0.396963   -1.202322
H         0.752646    3.459073    0.098470
C         1.665014    1.585196    0.495077
C         2.489723    0.013987    2.134172
C         4.024868    1.052735    0.617292
H         3.167099    2.414309   -0.792747
H         4.604884   -0.360598    2.130746
H         0.436386    0.536790    1.922314
H        -1.426329    3.667498   -1.236708
C        -0.871458    2.101548    0.168991
N        -1.440596    0.949999   -0.539887
C        -0.215905   -1.011886   -1.076312
O         0.259684   -2.244110   -0.791518
C         2.561409   -1.778412   -1.402749
C         3.256258   -1.258311   -2.402266
H         4.124231   -0.636936   -2.220582
O        -1.383082   -0.818003    0.988234
H        -1.999065   -3.372897   -0.399319
H        -3.185601   -2.115435   -0.716805
H        -2.110358   -3.317373    2.946531
H        -3.430295   -2.177743    3.003019
O        -3.028611    2.508799   -0.668663
C         0.578721    2.408849   -0.166067
H         0.692116    2.348706   -1.252651
C         1.437541    0.711414    1.552314
C         3.786416    0.182386    1.673806
C         2.972683    1.741418    0.036127
H         5.032840    1.193687    0.245094
H         2.286589   -0.669096    2.950224
H         1.577498   -3.677793   -1.252994
H         1.072882   -2.703473   -2.644909
