47
0 1
C         3.307533    0.979735    0.702652
C         1.966735    1.337536    0.040672
C         0.939724    0.230645    0.351266
C         1.446685   -1.162347   -0.070854
C         3.853755   -0.423966    0.398847
H         1.613216    2.249204    0.535503
H         3.166295    1.049750    1.787171
H         4.057524    1.733170    0.443441
H         4.650489   -0.609589    1.127303
H         3.123175   -2.462323    0.336258
H         2.558050   -1.535482    1.716041
C         2.764613   -1.473745    0.640820
C         4.495216   -0.568397   -0.983069
H         5.017297   -1.525651   -1.057958
H         5.226356    0.223904   -1.160674
H         3.768084   -0.530535   -1.793921
C        -0.476207    0.566134   -0.172374
C         0.396155   -2.192070    0.230448
C        -1.270908   -0.671630   -0.716152
C        -0.881574   -1.950956   -0.031477
C        -1.260591    1.311910    0.896298
O        -1.645512    2.441867    0.699509
C        -2.756533   -0.365949   -0.804228
C        -3.639102   -0.898056    0.039091
H        -3.270001   -1.586894    0.793052
C        -3.105630    0.626744   -1.879141
H        -2.706947    1.615506   -1.635019
H        -4.178198    0.731516   -2.025608
H        -2.664098    0.324108   -2.833297
C        -5.113882   -0.649460    0.109738
H        -5.379132   -0.205236    1.074092
H        -5.668190   -1.589446    0.034069
H        -5.476013    0.018190   -0.669786
C        -1.517606    0.638302    2.225485
H        -1.382335   -0.441059    2.186276
H        -2.527081    0.884311    2.551725
H        -0.821618    1.047581    2.962611
C         2.090174    1.677073   -1.449647
H         1.234650    2.257702   -1.796961
H         2.981595    2.281992   -1.628082
H         2.163594    0.792943   -2.083498
H        -1.639240   -2.699520    0.164395
H         0.706483   -3.137095    0.666132
H        -0.399974    1.272557   -0.995969
H        -0.920297   -0.774893   -1.751908
H         0.881420    0.171943    1.444065
H         1.617652   -1.160619   -1.155769
