14
0 1
C         0.000001    0.000001   -0.006963
C        -1.335246    0.578142   -0.433795
C         0.166927   -1.445466   -0.433661
C         1.168342    0.867254   -0.433762
H        -2.153240   -0.032974   -0.049415
H        -1.406917    0.609127   -1.523041
H        -1.449253    1.592851   -0.049495
H        -0.654800   -2.051519   -0.049233
H         1.105199   -1.848263   -0.049307
H         0.175851   -1.523145   -1.522898
H         1.048097    1.881235   -0.049434
H         1.231079    0.913787   -1.523005
H         2.104076    0.458627   -0.049381
F        -0.000026    0.000076    1.412699
