16
0 2
N        -0.532120   -1.152429    0.087671
H         0.020500   -2.000498   -0.024603
C         0.241033   -0.021905    0.210561
C        -0.354357    1.299645    0.574797
C         1.659517   -0.298841   -0.015295
H        -1.041509    1.163107    1.415906
H         0.435265    1.968969    0.913934
O         2.050296   -1.455050   -0.145460
H        -1.832208    1.460522   -0.641861
N         2.512973    0.765027   -0.044132
H         2.171728    1.690651   -0.243550
H         3.460854    0.555569   -0.315187
C        -1.887630   -1.231649   -0.032728
H        -2.241236   -2.269723   -0.101851
O        -2.643751   -0.282222   -0.067775
O        -1.005387    1.944735   -0.503211
