32
0 1
C        -0.665375    0.359333    2.691658
C        -1.142290   -0.409798    1.457814
C        -2.261116    0.199650    0.663999
C        -2.261116    0.199650   -0.663999
C        -1.142290   -0.409798   -1.457814
C         0.137421   -0.495656   -0.660150
C         1.296213   -0.328873   -1.605023
N         0.663012   -0.193200   -2.916472
H         1.994259   -1.171509   -1.600087
H         1.871278    0.575762   -1.332402
C         0.137421   -0.495656    0.660150
C        -0.665375    0.359333   -2.691658
H        -0.632155    1.441429   -2.466371
H        -1.296178    0.212223   -3.571156
C         1.296213   -0.328873    1.605023
N         0.663012   -0.193200    2.916472
H         1.871278    0.575762    1.332402
H         1.994259   -1.171509    1.600087
C         1.458095    0.509726    3.892486
H         2.410491   -0.004446    4.037927
H         0.938364    0.529816    4.852427
H         1.672767    1.551540    3.593281
C         1.458095    0.509726   -3.892486
H         2.410491   -0.004446   -4.037927
H         1.672767    1.551540   -3.593281
H         0.938364    0.529816   -4.852427
H        -1.296178    0.212223    3.571156
H        -0.632155    1.441429    2.466371
H        -3.097536    0.623981    1.211180
H        -3.097536    0.623981   -1.211180
H        -1.440070   -1.412684    1.791573
H        -1.440070   -1.412684   -1.791573
