19
0 1
C         1.463432    0.525370   -0.856605
C         0.042245    0.249800   -0.423109
C        -0.806808    1.284660   -0.051836
C        -0.439586   -1.057061   -0.409811
C        -2.121122    1.025125    0.318022
H        -0.437142    2.304597   -0.047639
C        -1.747115   -1.320428   -0.033379
H         0.225874   -1.866672   -0.686046
C        -2.593377   -0.278493    0.328832
H        -2.772548    1.841921    0.605080
H        -2.110634   -2.341164   -0.024295
H        -3.615786   -0.484812    0.621605
O         2.408944   -0.347541   -0.276781
C         2.577440   -0.148261    1.109256
H         1.652455   -0.342846    1.662826
H         3.346322   -0.844214    1.440913
H         2.906166    0.877510    1.321283
H         1.721879    1.569607   -0.633013
H         1.561211    0.382126   -1.934678
