35
0 1
C         0.194598    1.436983    1.313328
N        -0.315486    0.104184    1.024352
C         0.356475   -1.046228    1.606407
C         1.392691   -1.716861    0.701482
C         2.458330   -0.731874    0.263187
C         2.075704    0.297969   -0.863321
C         2.033484    1.771485   -0.491718
C         0.694493    2.222932    0.094542
C         3.562929   -1.168902   -0.677184
C         3.282891   -0.249419   -1.599500
C        -1.522071   -0.054036    0.362950
C        -2.355884    1.040975    0.076453
C        -3.567983    0.865780   -0.571328
C        -3.999171   -0.392715   -0.963733
C        -3.181630   -1.480926   -0.694146
C        -1.965893   -1.322712   -0.050356
H        -0.577342    2.024173    1.825281
H         1.010263    1.325361    2.029452
H         0.859928   -0.707633    2.516684
H        -0.393411   -1.772552    1.927958
H         1.849569   -2.543451    1.257226
H         0.912844   -2.152216   -0.180106
H         2.232261    2.371801   -1.385683
H         2.849172    1.989391    0.207874
H         0.772193    3.275465    0.385899
H        -0.065749    2.177598   -0.689069
H        -2.067062    2.039993    0.366946
H        -4.184738    1.735258   -0.768274
H        -4.945826   -0.521862   -1.472293
H        -3.487120   -2.476160   -0.996241
H        -1.352561   -2.195816    0.117710
H         3.732183    0.013997   -2.550201
H         4.314349   -1.946163   -0.600912
H         1.136692    0.012664   -1.348130
H         2.858988   -0.213852    1.143032
