43
0 1
C         2.131256   -1.939602    0.039311
C        -1.611307   -0.384606    0.907320
C        -0.527131    0.101871    0.265335
C         2.636889   -0.648599    0.055145
O         0.734245    0.133820    1.200772
C         1.634655    1.511614   -0.309221
H         2.292610    1.570748   -1.171261
N         1.782781    0.438748    0.421918
H         1.100362   -2.117715    0.311945
O        -0.259097    0.549012   -0.863232
C         2.967470   -2.977138   -0.340604
C         4.287452   -2.727125   -0.694191
H         4.933609   -3.544618   -0.988524
C         4.781312   -1.430809   -0.658746
H         5.814594   -1.233379   -0.914961
C         3.958197   -0.383565   -0.272144
H         4.344962    0.625758   -0.203032
H         2.581256   -3.988339   -0.365169
C        -2.903132   -0.466339    0.206559
C        -4.053022   -0.860590    0.907678
C        -3.062091   -0.168631   -1.157802
C        -5.290896   -0.944854    0.287395
H        -3.986217   -1.103173    1.959281
C        -4.300465   -0.253993   -1.771962
H        -2.199902    0.127912   -1.736254
C        -5.427824   -0.641274   -1.058477
H        -6.154993   -1.251394    0.866114
H        -4.383740   -0.017706   -2.827008
H        -6.393739   -0.707829   -1.544448
C        -1.537773   -0.855092    2.336797
H        -1.888782   -1.887651    2.431097
H        -2.166340   -0.243818    2.992664
H        -0.524348   -0.812081    2.725025
C         0.975544    2.765630    0.156984
H         0.184418    2.509265    0.860097
C         0.385567    3.534478   -1.021215
H        -0.071709    4.459829   -0.667739
H        -0.372607    2.936551   -1.523561
H         1.161213    3.802639   -1.745164
C         2.044086    3.589035    0.895815
H         2.876981    3.847044    0.235646
H         2.438597    3.050187    1.758696
H         1.600414    4.521410    1.248947
