20
0 1
C         2.920807    0.292774    0.209550
C         2.009409    1.339181    0.190982
C         0.661052    1.090160   -0.028596
C         0.214632   -0.209261   -0.237027
C         1.134427   -1.254320   -0.232129
C         2.479623   -1.007209   -0.003161
H         3.972327    0.488820    0.381185
H         2.349826    2.356345    0.344891
H        -0.055681    1.900747   -0.058533
H         0.795277   -2.269383   -0.411872
H         3.186624   -1.828239    0.000030
C        -1.243711   -0.503828   -0.425131
C        -2.100454   -0.743476    0.838893
C        -2.976013    0.386012    0.286111
H        -1.579977   -0.498180    1.762997
H        -2.564398   -1.724378    0.923845
H        -3.942564    0.066965   -0.113071
O        -2.034213    0.649828   -0.772009
H        -3.116918    1.259325    0.926133
H        -1.369431   -1.290843   -1.176492
