11
0 1
C        -0.745946    0.268767   -0.004698
O        -0.626695    1.465026   -0.004914
C        -2.078309   -0.434348    0.005276
H        -2.586853   -0.194575    0.940857
H        -1.982420   -1.515470   -0.086567
H        -2.683299   -0.045760   -0.814795
S         0.656837   -0.826938   -0.004811
C         1.987967    0.396178    0.007441
H         1.923579    1.030073   -0.873932
H         2.924713   -0.158276    0.000329
H         1.926170    1.011236    0.902287
