24
0 1
C        -3.031331   -1.407851    0.080786
H        -2.815834   -1.762521    1.100105
H        -2.666039   -2.156851   -0.624129
N        -2.453489   -0.111626   -0.199454
C        -1.065520    0.017460   -0.109704
C        -0.449701    1.280585   -0.073333
C        -0.224414   -1.096909   -0.068755
C         0.923549    1.409673   -0.026705
H        -1.046141    2.181009   -0.084723
C         1.160730   -0.966642   -0.022829
H        -0.636102   -2.095345   -0.075157
C         1.746499    0.288973   -0.004403
H         1.382976    2.389941   -0.001804
H         1.762214   -1.864608    0.004188
H        -4.111583   -1.348806   -0.041755
C        -3.266923    1.036042    0.142729
O         3.091578    0.524232    0.042974
C         3.953655   -0.590119    0.064414
H         4.965485   -0.191440    0.095723
H         3.836321   -1.205088   -0.834196
H         3.784112   -1.211598    0.950153
H        -4.316881    0.772784    0.025574
H        -3.067444    1.871641   -0.530131
H        -3.108546    1.381146    1.175340
