15
0 1
O         0.032088   -0.000009    1.446068
C        -0.006034    0.000000    0.012723
C        -1.485089   -0.000063   -0.340696
C         0.680664   -1.256887   -0.515102
C         0.680551    1.256957   -0.515082
H         0.202809   -2.147655   -0.104060
H         1.736728   -1.271137   -0.229577
H         0.629918   -1.304919   -1.605253
H         0.202620    2.147675   -0.104019
H         0.629794    1.305007   -1.605232
H         1.736616    1.271295   -0.229563
H        -1.970700   -0.884339    0.075005
H        -1.624419   -0.000063   -1.423532
H        -1.970779    0.884164    0.075014
H         0.950157    0.000001    1.731615
