25
0 1
C         0.788607   -1.612924   -0.901339
C        -0.613505   -1.468823   -0.400345
C        -1.318975   -0.341473   -0.481890
C        -2.685560   -0.184991   -0.007888
C        -3.376769    0.950734   -0.092451
C         2.948287    1.296076    0.138993
C         3.527635    2.523027   -0.390248
H         3.671956    2.446383   -1.469894
H         4.499977    2.723552    0.063960
C         2.477183    0.283056    0.572570
C        -4.777770    1.141760    0.388762
H        -5.436434    1.445315   -0.430361
H        -4.829327    1.931829    1.143805
C         1.896289   -0.952023    1.104890
H         0.948053   -0.718008    1.602823
H         2.565958   -1.387501    1.847264
H         1.110661   -0.692604   -1.401755
H         0.860488   -2.433434   -1.617522
H        -5.177981    0.225634    0.826239
H         2.879297    3.379931   -0.196690
O         1.709031   -1.958582    0.127598
H        -1.053582   -2.350507    0.060539
H        -0.856666    0.535706   -0.931076
H        -2.896769    1.816377   -0.545122
H        -3.150423   -1.060534    0.440680
