43
0 1
C         0.342742    0.090939    2.160585
C        -1.592826   -0.299647    0.757385
C         0.831975    1.159858    1.226104
C        -1.348289    0.862489    0.066196
C        -2.272855    1.337658   -1.021948
C        -0.759966   -0.605231    1.906230
C        -0.041150    2.903986   -0.302695
C        -2.652366   -1.218886    0.378301
C         2.113707    0.771005    0.445505
C         3.272233    0.599590    1.439905
H         3.163097   -0.305926    2.040662
H         3.325217    1.446234    2.132652
H         2.365060    1.635041   -0.185877
H         4.232926    0.539249    0.927736
N        -0.259693    1.619971    0.343451
Si         2.063821   -0.690851   -0.784196
C         0.812315   -0.413598   -2.160028
C         3.770382   -0.737873   -1.581049
C         1.733684   -2.344370    0.033090
H         0.850275    3.357344    0.125167
H        -0.874074    3.588708   -0.132753
H         0.117411    2.806238   -1.380126
H         4.047435    0.232061   -2.003542
H         3.785944   -1.466873   -2.395578
H         4.548603   -1.026734   -0.871351
H         0.861958    0.600852   -2.564236
H        -0.204532   -0.601949   -1.816467
H         1.014726   -1.103379   -2.983681
H         0.701950   -2.428645    0.374995
H         2.383762   -2.508235    0.895668
H         1.922264   -3.153115   -0.678680
C        -3.479305   -0.855622   -0.838218
C        -3.632127    0.651018   -0.973616
H        -4.439649   -1.364284   -0.753590
H        -2.972520   -1.267019   -1.719812
H        -4.195388    1.032828   -0.117016
H        -4.202258    0.906087   -1.869558
H        -1.788579    1.153769   -1.989063
H        -2.406113    2.417541   -0.951773
O        -2.857857   -2.260931    0.981366
H         0.941877   -0.104225    3.040786
H        -1.089280   -1.408498    2.553176
H         1.108171    2.034593    1.831449
