56
0 1
C         0.650121   -1.104639   -0.227312
C         1.683642   -1.477653    0.520384
C        -0.083305    0.199908   -0.038708
C        -1.401901    0.153312   -0.845386
C        -2.120964    1.508508   -0.929202
C        -2.452694   -0.770666   -0.222084
H        -1.152056   -0.206564   -1.846034
C         3.180837    0.709432   -0.733819
C         2.212958    1.419551   -0.156085
H         2.963670    0.150895   -1.638480
C         4.547801    0.446600   -0.192176
C         0.810962    1.322097   -0.727138
C         0.068075    2.635849   -0.744928
C        -1.252938    2.718706   -0.808839
C        -3.283334    1.412426    0.058725
H        -2.636039    1.576740   -1.897232
N        -3.370511    0.113909    0.481502
H        -1.991473   -1.493664    0.458228
C        -3.399360   -1.546233   -1.130036
C         2.739599   -2.388448    0.074087
H         1.893302   -0.924560    1.429153
C         4.554019   -0.776874    0.756558
H         4.904515    1.292383    0.408817
O         5.427197    0.224911   -1.278639
C         4.029474   -2.055272    0.154684
H         3.959780   -0.498202    1.633558
O         5.922854   -0.917411    1.140700
H         0.469804   -1.622204   -1.167909
C        -0.337269    0.520676    1.438936
C         2.442260    2.212821    1.107870
H         6.260623   -0.083869   -0.905734
H         6.029473   -1.722132    1.654284
H         2.457160   -3.298916   -0.445507
H         4.779284   -2.702860   -0.288620
C        -4.668883   -0.535631    0.715049
O        -4.056776    2.298651    0.345722
H         3.353771    2.809705    1.036617
H         2.551652    1.567643    1.984520
H         1.614084    2.889980    1.314799
H        -0.799108    1.499473    1.561037
H         0.586243    0.525748    2.012478
H        -0.995563   -0.221074    1.890083
C        -4.601387   -1.781421   -0.202896
O        -2.759038   -2.719825   -1.588011
H        -3.687108   -0.913952   -1.980946
H        -5.438076    0.164368    0.381181
C        -4.900715   -0.864937    2.179778
H        -4.394910   -2.677848    0.388308
H        -5.534792   -1.942172   -0.744403
H        -5.852217   -1.386697    2.309124
H        -4.923978    0.048727    2.774663
H        -4.103776   -1.507926    2.561264
H        -3.328388   -3.176770   -2.211829
H        -1.756847    3.678585   -0.809411
H         0.658382    3.545363   -0.710120
H         0.930270    0.993147   -1.765353
