25
0 1
C        -1.561348   -1.556871    0.434775
C        -2.976787   -0.967441    0.332992
C        -2.752733    0.550016    0.256657
C        -1.421427    0.663156   -0.456693
C        -0.711911   -0.546268   -0.312137
H        -1.234079   -1.611341    1.478660
H        -1.475913   -2.561741    0.017377
H        -3.618759   -1.264691    1.162804
H        -3.447790   -1.311498   -0.591421
H        -3.560052    1.073602   -0.256793
H        -2.669056    0.979453    1.261917
C         0.640301   -0.622037   -0.435668
C        -0.826253    1.799378   -0.913857
H         0.008091    1.753261   -1.594746
H        -1.311854    2.762669   -0.819161
C         1.734578   -1.205680   -0.876389
H         1.724634   -1.910912   -1.701905
C         3.036579   -0.802299   -0.239871
H         3.672043   -0.293693   -0.972121
H         3.596079   -1.672370    0.112623
C         2.681616    0.130949    0.918558
H         2.444684   -0.450954    1.811814
H         3.480000    0.829796    1.165491
C         1.451314    0.886011    0.525954
N         0.946914    1.957848    0.502792
