29
0 1
C         2.663683   -1.294692    0.042394
C         2.226563   -0.297431    1.108985
C         0.816423    0.190604    0.904386
C        -0.138170   -0.620621    0.319251
C         0.265892   -1.806644   -0.518859
C         1.615802   -2.390777   -0.112061
H         3.633368   -1.722527    0.306134
H         2.791598   -0.779549   -0.915970
H         2.917875    0.543711    1.170235
H         2.266247   -0.776585    2.095107
H        -0.509039   -2.573829   -0.477273
H         0.307575   -1.476823   -1.565918
H         1.931330   -3.127943   -0.853207
H         1.509108   -2.924151    0.838249
C        -1.476179   -0.173211    0.250312
C        -1.943006    0.773613    1.223820
C        -2.489337   -1.035465   -0.287204
H         0.473073    0.953677    1.594194
N        -2.294114    1.550406    1.993673
N        -3.290419   -1.715680   -0.751314
C        -1.413751    1.302680   -1.414734
H        -2.254041    1.895023   -1.070766
C        -0.149937    1.746429   -1.211368
H        -1.616930    0.642258   -2.251501
C         0.976130    1.760952   -0.698393
C         2.318596    2.342087   -0.585758
H         2.398774    3.184703   -1.274708
H         2.509224    2.712209    0.423259
H         3.097308    1.621602   -0.838975
