25
0 1
C         1.513309    1.951363   -0.730107
C         2.626949    1.044653   -0.193471
C         2.358986   -0.437207   -0.472625
C         3.412688   -1.307303    0.034968
C         0.212453    1.684215   -0.121607
H         1.782701    2.995962   -0.553381
H         1.433153    1.833314   -1.815778
H         2.735151    1.194751    0.882852
H         3.573894    1.333643   -0.654825
H         1.407097   -0.724070   -0.017299
H         2.249913   -0.595916   -1.550385
C        -0.847043    1.453294    0.389807
C         4.287946   -2.004135    0.460528
C        -2.132359    1.132715    1.004528
H        -2.939828    1.394858    0.314024
C        -2.247360   -0.345855    1.394069
H        -3.205536   -0.510702    1.891336
H        -1.460463   -0.596155    2.108497
C        -2.121459   -1.297222    0.198725
H        -1.166918   -1.137870   -0.308376
H        -2.144303   -2.336151    0.533524
C        -3.190879   -1.107307   -0.776533
N        -4.041851   -0.939484   -1.527340
H        -2.274497    1.748350    1.896266
H         5.063212   -2.626897    0.835242
