39
0 1
C        -0.331769   -2.252634    0.690984
O        -1.609255   -2.498417    0.933591
C         0.331857   -1.320442    1.460668
C         1.623130   -0.878531    1.200003
C         2.223553    0.189975    2.066855
C         2.317574   -1.323651    0.054167
C         3.765228   -0.977290   -0.158952
C         1.268285   -0.502188   -1.473152
C        -0.028075   -1.041790   -1.534651
C        -1.183740   -0.315984   -1.111885
O        -2.338440   -0.767411   -1.253803
C        -0.976688    0.996167   -0.467431
C         0.288669    1.602919   -0.457193
C         1.434186    0.935583   -1.131991
O         2.469323    1.527477   -1.369589
C         0.483480    2.833313    0.147404
C        -0.588543    3.461065    0.771719
C        -1.845365    2.886162    0.768442
C        -2.059155    1.659980    0.136279
C        -2.233457   -3.500768    0.128774
O        -3.294348    1.151530    0.128275
H        -0.250529   -0.832872    2.234198
H         2.564528    1.041850    1.475114
H         1.505411    0.551555    2.801474
H         3.097909   -0.195707    2.599610
H         4.126089   -1.383454   -1.104459
H         3.931510    0.099711   -0.181113
H         4.378035   -1.401508    0.642485
H        -0.214483   -1.938852   -2.112419
H         1.466095    3.284296    0.116513
H        -0.443174    4.418594    1.257538
H        -2.691499    3.372209    1.237466
H         1.996129   -0.847030   -2.199370
H         2.060012   -2.316935   -0.293867
H         0.179834   -2.957720    0.048723
H        -3.249786    0.315794   -0.403852
H        -3.213965   -3.671016    0.564973
H        -2.344186   -3.130089   -0.889617
H        -1.651191   -4.425590    0.158564
