24
0 1
S         2.821847   -0.565397   -0.380131
C         3.703227    0.472403    0.817254
H         3.975928    1.430055    0.373009
H         4.614440   -0.059670    1.088038
H         3.119057    0.638669    1.721986
C         1.399951    0.503726   -0.742326
C         0.319240    0.438930    0.317705
H         0.995440    0.172709   -1.696818
H         1.740743    1.534020   -0.852132
C        -0.484159   -0.851755    0.359974
C        -1.808919   -0.361590    0.948916
C        -1.966400    1.028638    0.294900
O        -0.637515    1.482740    0.068902
N        -2.758953    0.922457   -0.902246
H        -2.460521    1.737326    0.961677
O        -2.881752   -1.221927    0.668889
H        -1.706974   -0.250915    2.032053
O        -0.695272   -1.330471   -0.955910
H         0.003538   -1.612618    0.973488
H        -1.401458   -1.985123   -0.898092
H        -3.427126   -0.753882    0.014065
H         0.758522    0.604328    1.308252
H        -3.089827    1.824239   -1.217892
H        -2.219968    0.485175   -1.643417
