32
0 2
N        -0.625244   -2.035519   -0.052498
C         0.555752   -2.488530   -0.759236
H        -3.456238    2.573165   -0.847216
C         1.542693   -1.359990   -1.062917
H         1.053755   -3.255705   -0.162903
H         0.254429   -2.915378   -1.712634
O         1.792259   -1.001841   -2.198588
N         2.114262   -0.805315    0.038460
H         1.796816   -1.135249    0.948311
C         3.022073    0.293910   -0.071486
C         2.396406    1.642204    0.207277
H         3.869121    0.175371    0.608349
H         3.421107    0.321098   -1.087489
O         1.245952    1.856481    0.485081
O         3.312475    2.617189    0.113820
H         2.871914    3.460526    0.287904
C        -0.604721   -1.758179    1.273768
C        -1.836669   -1.149687    1.805093
O         0.401964   -1.926239    1.966822
N        -3.685495    1.616777   -1.070911
H        -1.794338   -0.921256    2.863466
H        -2.779706   -1.539919    1.435719
C        -2.804765    0.647326   -0.740017
C        -1.728297    1.040448    0.223230
O        -2.883013   -0.501725   -1.159245
N        -1.771922    2.354588    0.750151
H        -0.747456    0.814903   -0.187017
H        -1.816921    0.095871    1.115957
H        -1.425602   -1.708499   -0.592299
H        -2.452539    2.490050    1.486901
H        -0.854941    2.661473    1.048401
H        -4.372520    1.413892   -1.779271
