28
-1 1
C         5.110554   -0.583908    0.000028
C         5.264985    0.794721    0.000020
C         4.133800    1.605827   -0.000004
C         2.867006    1.048702   -0.000019
C         2.693881   -0.341162   -0.000009
C         3.839296   -1.141343    0.000013
H         3.721845   -2.219579    0.000019
H         5.982017   -1.229269    0.000045
H         6.255086    1.235988    0.000031
H         4.241983    2.684666   -0.000013
H         1.995837    1.691985   -0.000041
C         1.371820   -0.976260   -0.000022
C         0.200838   -0.339753    0.000005
C        -1.083813   -1.102419   -0.000012
C        -2.343191   -0.356096   -0.000002
C        -2.452850    1.096940   -0.000006
C        -3.811879    1.601602    0.000010
C        -4.910689    0.794243    0.000025
C        -4.779319   -0.611824    0.000026
C        -3.514547   -1.141814    0.000012
H        -3.368322   -2.215886    0.000012
H        -5.902204    1.240882    0.000036
H        -5.653949   -1.251764    0.000038
H        -3.906845    2.682140    0.000008
O        -1.495098    1.913787   -0.000033
O        -1.046231   -2.336154   -0.000029
H         0.095571    0.738189    0.000035
H         1.354252   -2.063142   -0.000054
