17
0 2
C         2.431669   -0.647951   -0.142953
C         1.026935   -0.173209    0.021223
H         2.475541   -1.732772   -0.066286
H         3.075605   -0.206182    0.622966
H         2.829355   -0.337431   -1.113094
N         0.053095   -0.959652    0.219693
C         0.672370    1.299701    0.000157
C        -0.852562    1.249331   -0.118119
H         1.164504    1.836187   -0.813750
H         1.005506    1.764017    0.935452
C        -1.184392   -0.180397    0.379654
H        -1.154705    1.347960   -1.162878
H        -1.363600    2.022995    0.455007
C        -2.337179   -0.826232   -0.290802
H        -3.266976   -0.285628   -0.415152
H        -2.295406   -1.877273   -0.540028
H        -1.382536   -0.141768    1.464943
