35
0 1
C        -0.402947    1.143092   -1.501868
N         0.092427   -0.094225   -0.919800
C        -0.483833   -1.351772   -1.375148
C        -1.372899   -2.079318   -0.348753
C        -2.782407   -1.570608   -0.271146
C        -1.804567    1.119266    1.514599
C        -1.995983    2.031652    0.339575
C        -0.743574    2.263357   -0.513634
C        -3.229621   -0.699391    0.626700
C        -2.371805   -0.071926    1.659960
C         1.362996   -0.122204   -0.355974
C         1.853403   -1.285949    0.261521
C         3.120143   -1.322219    0.819069
C         3.948741   -0.209360    0.790749
C         3.479907    0.943654    0.180230
C         2.215183    0.993894   -0.385024
H         0.314306    1.529747   -2.240549
H        -1.309247    0.896047   -2.055628
H        -1.065014   -1.154914   -2.279031
H         0.328923   -2.019757   -1.674121
H        -1.397278   -3.139537   -0.621315
H        -0.901544   -2.008869    0.632009
H        -2.322689    3.004238    0.723426
H        -2.803791    1.659745   -0.295595
H        -0.896213    3.167814   -1.111525
H         0.106240    2.468655    0.139963
H         1.238311   -2.171644    0.320784
H         3.459086   -2.238592    1.288515
H         4.936375   -0.241391    1.232553
H         4.108766    1.825337    0.132088
H         1.904491    1.908815   -0.865682
H        -2.188170   -0.637298    2.570380
H        -1.158012    1.488835    2.306834
H        -4.278837   -0.413954    0.601873
H        -3.479117   -1.956698   -1.011514
