24
0 1
C         2.830055    0.460317    0.001654
C         2.401084   -0.620679    0.986220
C         1.644037    1.159617   -0.652470
C         1.081757   -1.259530    0.565787
C        -0.051925   -0.219787    0.616931
C         0.453282    1.198387    0.300082
C        -2.749633    0.147323    0.099494
C        -4.021773   -0.047548   -0.683510
O        -2.667709    0.867199    1.059890
H         2.301991   -0.178238    1.982100
H         3.198848   -1.362619    1.048389
H         1.378560    0.595952   -1.551389
H         1.924139    2.161728   -0.979619
H         0.833518   -2.110565    1.201183
H         1.196407   -1.652780   -0.448420
H        -0.521962   -0.218166    1.599303
H         0.746116    1.679674    1.238659
H        -0.353931    1.806361   -0.105090
H        -4.851719   -0.155908    0.014691
H        -3.974024   -0.909243   -1.348161
H        -4.196079    0.850406   -1.280496
S        -1.359809   -0.767533   -0.538000
F         3.599669   -0.138492   -1.015053
H         3.498424    1.174172    0.488076
