22
0 1
Cl        -2.255519   -1.052391   -0.198672
C        -1.251120    0.478745    0.020711
C        -1.859217    1.533672   -0.890036
C         0.182643    0.172496   -0.407945
C        -1.363163    0.885663    1.481295
H        -2.393811    1.140267    1.729555
H        -0.736607    1.764161    1.659743
H        -1.039233    0.089353    2.149467
H        -1.804403    1.226982   -1.934985
H        -1.308724    2.471355   -0.775125
H        -2.904083    1.712736   -0.635586
H         0.731474    1.119861   -0.378771
H         0.164325   -0.143992   -1.455064
C         0.931960   -0.863394    0.419448
H         1.027631   -0.529092    1.454825
C         2.334402   -1.144084   -0.135554
H         0.371326   -1.800202    0.431806
H         2.257775   -1.503848   -1.166471
H         2.800649   -1.948518    0.439288
C         3.211129    0.023077   -0.104855
C         3.917612    0.988938   -0.067060
H         4.552022    1.840910   -0.037292
