41
0 2
C         2.063096    2.378413   -0.171236
C         1.166413    2.519306   -1.375004
H         0.580740    3.444797   -1.323821
H         0.473114    1.681916   -1.452472
H         1.752348    2.554680   -2.298099
C         3.163048    3.403055   -0.044529
H         2.671543    1.230601   -0.306404
H         1.510866    2.231911    0.756385
H         2.751374    4.411886    0.075410
H         3.794486    3.416378   -0.937965
H         3.801936    3.203291    0.818576
O         1.383267   -0.931771   -1.227311
C         2.614119   -1.126540   -0.504076
C         2.175582   -1.600356    0.877770
C         0.978920   -2.507506    0.523094
C         0.450831   -1.904436   -0.822832
C         3.450048    0.109266   -0.571267
H         3.150859   -1.965463   -0.979211
H         3.830434    0.327592   -1.567037
H         4.223101    0.155621    0.192111
O         1.801261   -0.587610    1.772306
H         2.970580   -2.164843    1.365813
H         1.055442   -0.059334    1.404129
O         0.023931   -2.600393    1.534985
H         1.338230   -3.516542    0.307713
H         0.186232   -1.866057    2.144816
N        -0.858715   -1.302659   -0.758034
H         0.372185   -2.691501   -1.579839
C        -1.943854   -1.655850   -1.531585
N        -2.998542   -0.926958   -1.323290
C        -2.597921   -0.027243   -0.357511
C        -1.278385   -0.243192    0.007457
N        -0.603064    0.467260    0.916784
C        -1.335023    1.434038    1.458511
N        -2.600782    1.748144    1.195589
C        -3.264118    1.027529    0.284028
N        -4.543276    1.336492    0.010730
H        -4.979955    2.095792    0.504686
H        -5.059253    0.799036   -0.664708
H        -0.841551    2.045250    2.206894
H        -1.876268   -2.471688   -2.236181
