14
0 1
C        -1.636994    0.932424    0.095468
C        -0.144418    0.777125   -0.145586
C         2.269481   -0.429449   -0.493240
C         2.985757   -0.082953    0.801556
O         0.522906    1.774032   -0.245415
Cl        -2.588011   -0.574216    0.180778
H        -2.037889    1.542020   -0.711331
H        -1.763549    1.465135    1.035749
H         2.310040    0.396323   -1.202164
H         2.703487   -1.310359   -0.967514
H         2.550615    0.805655    1.258320
H         4.039240    0.124457    0.598696
H         2.932079   -0.905624    1.516262
S         0.514747   -0.858192   -0.261694
