19
0 1
C         1.021818   -1.220907    0.000050
C        -0.370246   -1.205798    0.000014
C        -1.022699    0.025927   -0.000029
C        -0.322956    1.233059   -0.000035
C         1.065095    1.191214    0.000005
C         1.708576   -0.028498    0.000046
H         1.568769   -2.155117    0.000083
H         1.647953    2.103553    0.000001
F         3.062186   -0.053383    0.000082
O        -2.389320    0.118262   -0.000060
H        -2.783409   -0.757434   -0.000120
C        -1.076220    2.530558   -0.000079
H        -0.390674    3.377747   -0.000131
H        -1.724059    2.605178   -0.876132
H        -1.724022    2.605260    0.875995
C        -1.160417   -2.485426    0.000023
H        -1.799704   -2.567880   -0.885351
H        -0.497948   -3.349877    0.000043
H        -1.799725   -2.567851    0.885383
