10
0 1
O        -0.097066    1.505757    0.000204
C         0.078182    0.340956    0.000041
C        -0.953957   -0.749306   -0.000080
C        -2.375359   -0.209267    0.000047
H        -0.753699   -1.379257    0.870677
H        -0.753759   -1.379002   -0.871036
H        -2.562777    0.405737    0.880541
H        -3.087380   -1.035379   -0.000053
H        -2.562835    0.406001   -0.880251
Cl         1.764928   -0.315203   -0.000091
