42
0 1
C        -1.768822   -0.456020    0.075340
C        -1.717578   -1.815221    0.416577
C        -2.858027   -2.603896    0.298883
C        -4.040613   -2.101301   -0.215922
C        -4.065698   -0.794785   -0.675515
C        -2.945685    0.004814   -0.530612
H        -2.795707   -3.646605    0.589131
H        -4.915892   -2.734163   -0.296764
H        -4.951710   -0.393089   -1.151344
H        -2.977838    1.005684   -0.934468
C        -0.656729    0.539480    0.176018
C         0.656729    0.539476   -0.176029
C         1.768823   -0.456021   -0.075327
C         2.945688    0.004830    0.530608
C         1.717578   -1.815231   -0.416526
C         4.065701   -0.794765    0.675530
H         2.977843    1.005712    0.934435
C         2.858027   -2.603904   -0.298813
C         4.040615   -2.101294    0.215974
H         4.951715   -0.393056    1.151345
H         2.795707   -3.646620   -0.589032
H         4.915894   -2.734154    0.296831
C         0.402160   -2.468059   -0.670020
H        -0.163510   -1.930897   -1.432504
H         0.542027   -3.486761   -1.032606
C         1.115356    1.971848   -0.502420
C        -1.115358    1.971860    0.502368
N        -1.058092    2.674445   -0.819468
N         0.045933    2.643827   -1.330847
N        -0.045936    2.643864    1.330777
N         1.058089    2.674469    0.819398
C        -2.420388    2.228749    1.228979
H        -2.299435    3.140462    1.812637
H        -3.250171    2.370044    0.543571
H        -2.660807    1.413493    1.909808
C         2.420386    2.228717   -1.229038
H         2.660817    1.413435   -1.909831
H         2.299427    3.140405   -1.812734
H         3.250165    2.370048   -0.543631
C        -0.402160   -2.468040    0.670090
H         0.163509   -1.930856    1.432559
H        -0.542027   -3.486733    1.032706
