26
0 1
C         3.168561    0.395477    0.033340
C         2.445938    0.395671    1.377930
C         0.968391    0.175449    1.240116
C         0.387792   -0.232247    0.118457
C         1.161414   -0.544447   -1.138073
C         2.649029   -0.732436   -0.851065
H         4.246069    0.304505    0.185664
H         2.998120    1.352650   -0.470547
H         2.617252    1.337172    1.907328
H         2.852582   -0.387746    2.028978
H         0.757007   -1.444432   -1.611230
H         1.027069    0.272095   -1.857179
H         3.202438   -0.775914   -1.791432
H         2.801022   -1.691944   -0.346303
C        -1.130453   -0.410216    0.016645
C        -1.816498   -0.028888    1.259402
C        -1.434502   -1.828151   -0.254955
N        -2.367934    0.281686    2.214056
N        -1.651660   -2.924107   -0.509870
C        -1.731628    0.427867   -1.160917
C        -1.430478    1.844529   -1.040279
C        -1.176255    3.006986   -0.931303
H        -1.327073    0.033547   -2.094163
H        -2.811354    0.269421   -1.185326
H         0.365073    0.367149    2.120949
H        -0.958912    4.042871   -0.831831
