28
0 1
C        -2.491989    0.467758   -1.065385
C        -1.379513    0.375489   -0.237404
C        -1.527875   -0.135998    1.048903
C        -2.772712   -0.552998    1.493839
C        -3.878811   -0.467308    0.659135
C        -3.736588    0.043618   -0.622712
C        -0.034792    0.813674   -0.750969
N         0.767846    1.468183    0.289137
O         2.069226    1.554927   -0.329726
C         0.367094    2.824676    0.591713
C         2.283047    0.234706   -0.740846
C         0.935420   -0.302797   -1.231067
H         3.097748    0.229229   -1.462930
C         0.781820   -1.630298   -0.525316
C         2.622724   -0.681295    0.442102
H         0.355150    3.455714   -0.306586
H        -0.631026    2.788282    1.026848
H         1.058459    3.241132    1.321786
H        -0.667120   -0.200789    1.702850
H        -2.878114   -0.950599    2.495751
H        -4.849623   -0.797572    1.007912
H        -4.595558    0.116306   -1.278478
H        -2.384664    0.873720   -2.065325
O         3.488305   -0.563736    1.238136
O         1.747074   -1.746733    0.456635
O         0.000184   -2.495098   -0.731940
H         0.848566   -0.460857   -2.303119
H        -0.174014    1.497909   -1.599469
