23
0 2
C        -0.568254   -1.541204   -0.716078
H        -0.033787   -2.497163   -0.710574
H        -0.841447   -1.340921   -1.756458
C        -1.841646   -1.676975    0.127810
H        -2.302182   -2.628438   -0.151360
C        -2.564917    0.784776    0.554430
H        -3.474274    1.381451    0.641914
H        -1.572829   -1.777120    1.184767
H        -2.147557    0.684792    1.558819
C        -2.906478   -0.586331   -0.024494
H        -0.352266    0.705084   -0.401683
H        -3.806837   -0.944297    0.486656
H        -3.171556   -0.473337   -1.080018
C         0.396805   -0.466071   -0.273853
C         2.194614    0.756937    1.143479
C         2.965552    0.350331   -0.101062
H         2.838475    0.788984    2.022168
H         1.712780    1.726906    1.015872
H         3.542643    1.185264   -0.497814
H         3.635873   -0.482127    0.110264
S         0.908314   -0.493285    1.426982
S         1.770876   -0.177078   -1.381430
S        -1.434259    1.791747   -0.463299
