30
0 1
O        -3.474576   -0.166464    0.312714
C        -2.351196   -0.511795    0.030119
O        -2.012130   -1.813305   -0.083993
C        -3.063001   -2.752796    0.146947
C        -1.196309    0.349630   -0.246576
C         1.196311    0.349630   -0.246576
C         1.208545    1.686174   -0.114950
N         0.000001    2.351799   -0.383769
C        -1.208543    1.686174   -0.114950
C         2.338362    2.570190    0.287150
C         2.351197   -0.511797    0.030118
O         2.012127   -1.813306   -0.083992
C         3.062996   -2.752800    0.146949
C        -2.338361    2.570189    0.287151
O         3.474577   -0.166468    0.312714
H         3.450855   -2.648307    1.159978
H         3.874954   -2.596272   -0.562677
H         2.615230   -3.733131    0.007107
H         0.000001    3.335525   -0.161169
H         0.000001   -1.265791   -0.590753
H         2.101591    3.082070    1.225350
H         2.489474    3.336963   -0.479511
H         3.256792    2.007694    0.411702
H        -2.101590    3.082069    1.225351
H        -3.256790    2.007692    0.411702
H        -2.489473    3.336962   -0.479510
H        -3.874958   -2.596266   -0.562678
H        -3.450860   -2.648303    1.159976
H        -2.615237   -3.733129    0.007105
N         0.000001   -0.264402   -0.711060
