21
0 1
C        -0.655287    0.985955    0.668963
C        -1.616988    0.015328    0.011942
C        -2.922774    0.241116   -0.041959
C         2.631143   -0.681655    0.139950
C         1.319806   -0.459351    0.116854
C         0.721321    0.897830    0.058159
C         1.303288    1.935408   -0.536276
C         0.308818   -1.584764    0.185247
C        -0.972283   -1.221912   -0.567907
H        -0.579436    0.724994    1.732354
H         0.825163    2.907505   -0.558583
H         2.264118    1.844970   -1.027468
H        -1.041230    2.004161    0.617762
H         0.061447   -1.784241    1.234430
H         0.748810   -2.500873   -0.211725
H        -1.679536   -2.053034   -0.564319
H        -0.715406   -1.026142   -1.615289
H         3.027623   -1.690282    0.157743
H         3.346891    0.130603    0.158596
H        -3.602501   -0.478055   -0.484997
H        -3.358209    1.152661    0.351661
