51
0 1
C         1.173351   -2.485796    0.397896
N        -0.116429   -1.841500    0.510709
C         2.202120   -1.623776   -0.299314
C         0.324611   -0.511512   -1.500483
H        -0.139919    0.465657   -1.475480
H         0.427163   -0.771588   -2.559113
C         2.353500    0.779613   -0.698086
C         3.540419   -1.957389   -0.118218
H         4.179463   -2.075074   -0.972801
H         3.771277   -2.658483    0.684607
C         3.602568    0.916738   -0.091146
C         4.621898   -0.008873   -0.230300
C         1.714260   -0.456707   -0.915507
H         4.794270   -0.352186   -1.237762
H         3.721908    1.736735    0.612377
C         5.842359    0.022270    0.645126
H         6.308855   -0.962336    0.708789
H         6.591536    0.708979    0.237748
H         5.597762    0.346201    1.657636
H         1.077427   -3.458480   -0.122920
C        -0.613761   -1.533261   -0.822525
H         1.552949   -2.705863    1.400770
S         1.475228    2.333941   -0.896977
C        -1.058556   -2.646312    1.265730
C        -2.045435   -1.031410   -0.795713
H        -0.608073   -2.466826   -1.420162
C        -2.841438   -1.169440    0.339274
C        -2.292959   -1.823151    1.578540
H        -3.059568   -2.452966    2.037606
H        -2.027580   -1.049238    2.303792
H        -0.575515   -2.969236    2.190490
H        -1.339232   -3.559199    0.707629
C        -2.586361   -0.434561   -1.933977
C        -4.148772   -0.687802    0.319421
C        -4.674282   -0.083755   -0.808637
C        -3.886748    0.038668   -1.946603
H        -4.285227    0.502206   -2.841081
H        -1.977765   -0.330865   -2.824554
H        -4.760333   -0.794038    1.209513
H        -5.693322    0.284300   -0.805333
C         0.079869    2.176748    0.210808
C         0.208525    1.597439    1.467551
C        -1.150256    2.685057   -0.194289
C        -2.243585    2.619322    0.656859
C        -2.115661    2.043739    1.912221
C        -0.887982    1.533234    2.312212
H        -1.254435    3.111873   -1.184589
H        -3.202728    2.998395    0.326595
H         1.159859    1.183997    1.776160
H        -2.972810    1.982468    2.571643
H        -0.780696    1.078515    3.290044
