9
0 1
C         0.009810   -1.233927    0.000056
C         1.264980   -0.712711    0.000056
C         1.264980    0.712711    0.000002
C         0.009810    1.233927   -0.000061
H         2.160727    1.317889   -0.000002
H         2.160727   -1.317889    0.000102
H        -0.280933   -2.272534    0.000097
S        -1.191067    0.000000   -0.000025
H        -0.280934    2.272534   -0.000118
