30
0 2
N         0.163773   -0.661448   -0.539311
C         1.210596    0.178054   -0.262438
C         2.288424   -0.653894   -0.001681
N         1.925955   -1.978464   -0.119560
C         0.664354   -1.940734   -0.446170
C         3.496960   -0.019241    0.323526
N         3.532366    1.318017    0.356081
C         2.420626    1.998644    0.082528
N         1.222922    1.517896   -0.233401
N         4.616507   -0.709708    0.601700
H         5.458443   -0.207751    0.826167
H         4.608169   -1.715053    0.580704
H         2.507312    3.079086    0.124924
H         0.028659   -2.792600   -0.624819
C        -1.170165   -0.242254   -0.963844
C        -1.732675    0.878109   -0.077860
C        -3.206356    0.518882   -0.044996
C        -3.145245   -1.009196    0.024850
O        -2.055994   -1.329553   -0.874660
H        -1.110550    0.094500   -2.002657
C        -2.912198   -1.545026    1.385942
H        -4.034654   -1.463397   -0.426040
H        -2.462067   -2.522475    1.494555
H        -3.318693   -1.033159    2.246337
O        -1.529115    2.170777   -0.567844
H        -1.330734    0.768405    0.936453
H        -0.568847    2.334317   -0.507196
O        -3.912394    1.062789    1.040689
H        -3.660212    0.820326   -0.996508
H        -3.853400    2.021580    0.984905
