14
0 2
C        -2.347846   -0.113801   -0.134832
C        -0.917347   -0.352395    0.332656
H        -0.882737   -0.352355    1.428093
C         1.496808    0.411362    0.219840
H         2.180156    1.226104   -0.084264
O         2.035200   -0.746857   -0.259811
H        -0.582082   -1.343394    0.013486
H         1.603288    0.388256    1.321206
C         0.061647    0.688955   -0.198998
H        -0.222451    1.686768    0.154799
H         0.017561    0.716281   -1.292581
H        -2.712437    0.864718    0.189470
H        -3.028234   -0.870005    0.261705
H        -2.414241   -0.146242   -1.225419
