16
1 1
C        -0.929434    0.282921   -0.000001
C        -0.040676    1.379010   -0.000035
C         1.302991    1.161922   -0.000038
N         1.736506   -0.111756   -0.000007
C         0.955057   -1.196085    0.000027
C        -0.402758   -1.022902    0.000031
F         3.070203   -0.309615   -0.000010
O        -2.202490    0.573467   -0.000001
H        -0.432456    2.386647   -0.000060
H         2.064341    1.930138   -0.000063
H         1.459434   -2.153228    0.000050
H        -1.034200   -1.898260    0.000059
C        -3.196646   -0.468406    0.000026
H        -4.149955    0.049372    0.000009
H        -3.102912   -1.076149    0.900638
H        -3.102908   -1.076200   -0.900551
