18
0 1
C        -0.609270    0.000000    0.372843
C         0.057091    1.260541   -0.152141
Cl        -2.370987    0.000000   -0.067158
C         0.057091   -1.260541   -0.152141
C         1.546883    1.259575    0.199742
C         2.241300    0.000000   -0.315201
C         1.546883   -1.259575    0.199742
H        -0.438547    2.142024    0.258728
H        -0.068499    1.296694   -1.238963
H        -0.068499   -1.296694   -1.238963
H        -0.438547   -2.142024    0.258728
H         1.663649    1.318859    1.288122
H         2.019536    2.154391   -0.212187
H         3.293392    0.000000   -0.019418
H         2.222531    0.000000   -1.411142
H         1.663649   -1.318859    1.288122
H         2.019536   -2.154391   -0.212187
H        -0.601291    0.000000    1.463787
