20
0 1
C        -1.481834    1.491753    0.000007
C        -0.761902    0.364361   -0.000007
C         0.720488    0.330802   -0.000006
C         1.418141    1.662707   -0.000003
C         1.352091   -0.846639   -0.000007
C         2.824218   -1.104711   -0.000004
H         1.144331    2.249251   -0.880418
H         1.144335    2.249243    0.880419
H         2.499314    1.551405   -0.000003
H         3.104713   -1.696612    0.876557
H         3.104685   -1.696778   -0.876461
H         3.429980   -0.200314   -0.000099
O        -1.311553   -0.878860   -0.000028
C        -2.717247   -0.987666    0.000031
H        -3.149586   -0.524508    0.892229
H        -2.938800   -2.052806    0.000057
H        -3.149660   -0.524539   -0.892149
H         0.730084   -1.734216   -0.000004
H        -0.989996    2.450676    0.000025
H        -2.560703    1.496434    0.000000
