45
0 1
C        -3.945068   -2.134890   -0.507720
C        -2.808340   -1.655211    0.125859
C        -2.632170   -0.287259    0.313244
C        -3.613938    0.588999   -0.136270
C        -4.752000    0.110478   -0.770431
C        -4.918990   -1.253986   -0.959255
H        -4.073245   -3.201841   -0.644762
H        -2.060295   -2.349551    0.489269
H        -3.487927    1.655912    0.013024
H        -5.510806    0.804063   -1.112287
H        -5.807543   -1.630693   -1.451091
C        -1.369425    0.252316    0.933485
C        -0.156804    0.240446   -0.032794
C        -0.052773    2.488641   -0.906341
C         1.171587    1.952878    1.119625
C         0.908301    3.622812   -1.237836
H        -0.920945    2.900083   -0.358857
H        -0.441158    2.037524   -1.823415
C         2.177811    3.063106    0.848344
H         0.377816    2.338570    1.783937
H         1.656261    1.125455    1.638718
C         1.541515    4.184864    0.032174
H         0.373760    4.404384   -1.783874
H         1.690296    3.237018   -1.898800
H         2.560090    3.444528    1.798347
H         3.024849    2.640416    0.300030
H         2.281722    4.949581   -0.214831
H         0.768513    4.676762    0.634630
N         0.620982    1.454856   -0.134916
N         0.601629   -0.842621    0.569673
N         0.119186   -1.176255    1.792474
N        -0.936325   -0.589217    2.072663
C         1.743504   -1.468385    0.051564
C         2.335347   -2.534619    0.730576
C         2.280785   -1.035837   -1.159601
C         3.450162   -3.155088    0.192670
C         3.392882   -1.675626   -1.686819
C         3.986378   -2.735637   -1.018314
H         1.915202   -2.866989    1.668736
H         3.901736   -3.981778    0.728041
H         4.856572   -3.228454   -1.433117
H         3.801522   -1.330843   -2.629233
H         1.849269   -0.184637   -1.665626
H        -1.555466    1.257992    1.311227
H        -0.471122   -0.032851   -1.042286
