21
0 1
C         0.563554   -0.447110    0.000015
C         1.640542    0.326479   -0.000098
C         3.050252   -0.179335   -0.000115
H         3.596830    0.176723    0.878092
H         3.081764   -1.270422    0.000004
H         3.596740    0.176529   -0.878457
C        -1.049230    1.501036   -0.000105
C        -0.885344   -0.018511    0.000039
H        -0.594170    1.951802    0.884754
H        -0.594246    1.951625   -0.885092
H        -2.109931    1.763114   -0.000085
C        -1.560875   -0.601988   -1.250462
C        -1.560759   -0.601739    1.250719
H        -1.461070   -1.690074   -1.279250
H        -2.627602   -0.362193   -1.260214
H        -1.110604   -0.198722   -2.160202
H        -2.627486   -0.361943    1.260521
H        -1.460951   -1.689819    1.279715
H        -1.110404   -0.198291    2.160337
H         0.708424   -1.528081    0.000106
H         1.523869    1.406770   -0.000190
