52
0 1
C         1.871802   -2.468434    0.087719
C         1.607128   -1.395582    1.160803
C         1.424471    0.424994   -1.330839
H         0.946328   -2.998360   -0.158761
C         2.872854   -0.544919    1.435013
H         2.979699   -0.419053    2.516614
H         3.762734   -1.095522    1.112626
H         1.201108    1.077799   -2.179638
H         1.406641   -1.945647    2.088199
H         0.174873    0.217825    1.936958
C         2.879334    0.862242    0.833512
H         2.105957    1.439803    1.341853
H         3.824188    1.346369    1.102505
C         2.688721    1.028877   -0.678555
H         2.686631    2.107992   -0.866494
H         3.569471    0.648960   -1.206249
C         1.682670   -0.947154   -1.988777
H         0.719186   -1.388321   -2.266206
C         2.496625   -1.973427   -1.210296
H         2.661618   -2.838139   -1.860801
H         3.492357   -1.568263   -1.007962
H         2.212128   -0.760494   -2.929977
H         2.546823   -3.219401    0.515862
C         0.153703    0.449098   -0.432104
H        -0.622057    0.003488   -1.065875
Si       -0.533855    2.206066   -0.196039
C         0.182626    3.168363    1.259153
H         1.224120    3.450889    1.094897
H        -0.389033    4.091098    1.393591
H         0.134244    2.611910    2.197967
C        -0.226880    3.236289   -1.745208
H        -0.721088    4.207478   -1.653320
H        -0.626835    2.747985   -2.638042
H         0.835227    3.423611   -1.917920
C        -2.402665    2.157942    0.040483
H        -2.896921    1.796373   -0.864001
H        -2.713450    1.511912    0.861302
H        -2.775136    3.167022    0.238194
B         0.339182   -0.427305    0.913928
C        -1.347213   -0.873457    2.005305
C        -1.118346   -1.800612    1.062060
H        -0.565322   -2.694831    1.311306
C        -1.891041   -0.205585    2.978528
H        -2.796761   -0.601934    3.425390
H        -1.492464    0.726397    3.350415
C        -1.886447   -1.910850   -0.200957
O        -1.674330   -2.760599   -1.025358
O        -2.842436   -0.985750   -0.311848
C        -3.592183   -1.009309   -1.530286
H        -4.091184   -1.970179   -1.650127
H        -4.318081   -0.206136   -1.440844
H        -2.933767   -0.839087   -2.382243
