55
1 1
C         1.382881    1.281310    0.655214
C         0.408797   -0.923641   -0.421549
C         1.892145   -1.303454   -0.480792
C         2.752059   -0.196439   -1.080822
C         2.444702    1.189897   -0.462307
H         2.244370   -1.546552    0.520793
H         1.986877   -2.205136   -1.088699
H         2.504146   -0.133680   -2.140308
H         3.361695    1.605866   -0.048150
H         2.142149    1.858517   -1.271107
N         0.309067    0.271023    0.446548
O        -0.737056    0.395490    1.174296
C         1.969650    1.045315    2.053313
H         2.505857    0.102410    2.111674
H         2.685475    1.837996    2.277434
H         1.174468    1.075833    2.799122
C         0.749398    2.672046    0.597196
H         0.043641    2.825367    1.413968
H         1.536207    3.420366    0.695500
H         0.250241    2.832993   -0.360279
C        -0.385509   -2.070087    0.196794
H        -0.033876   -2.288150    1.205684
H        -1.451876   -1.856177    0.239353
H        -0.244138   -2.959541   -0.417842
C        -0.156320   -0.576753   -1.808915
H        -0.015025   -1.424628   -2.481847
H        -1.223531   -0.370849   -1.742419
H         0.328177    0.295850   -2.247165
C        -2.866184    1.378320    0.170640
H        -3.037952    2.058040    1.009134
H        -1.624077    0.907616    0.675121
C        -3.558657    0.107201    0.167167
C        -3.874748   -0.548375   -1.029870
C        -3.863214   -0.493981    1.397127
C        -4.491265   -1.784023   -0.989590
H        -3.655466   -0.069838   -1.975037
C        -4.474844   -1.732208    1.425964
H        -3.615536    0.012411    2.323115
C        -4.785667   -2.378858    0.234225
H        -4.752330   -2.287146   -1.911822
H        -4.714116   -2.195607    2.374264
H        -5.268811   -3.347713    0.258607
O        -2.581309    1.940847   -0.998622
C        -2.478639    3.374280   -1.037317
H        -1.951410    3.620542   -1.954296
H        -1.925336    3.742624   -0.173259
H        -3.481821    3.801097   -1.057205
N         4.169312   -0.535827   -1.072721
C         4.897103   -0.746046    0.058897
H         4.637690   -0.611204   -1.959953
O         4.394158   -0.661237    1.165408
C         6.351711   -1.083899   -0.137177
H         6.656539   -1.118298   -1.183080
H         6.954176   -0.342475    0.388330
H         6.548213   -2.051329    0.325739
