26
0 1
O         1.282176   -0.244010    1.587089
C         0.796093   -1.213083    0.904847
C        -0.493446   -1.666873    1.002651
C        -1.228014    0.392949   -0.087891
C        -0.834505    1.168417    0.986616
C         0.486320    1.574347    1.041684
H        -1.109258   -1.383523    1.842052
H        -0.810175   -2.484020    0.368380
H        -1.480569    1.236408    1.851420
H         0.855793    2.091240    1.917065
C        -0.428160    0.375172   -1.314222
C         0.727125    1.035377   -1.384248
C         1.274503    1.805933   -0.222728
H        -0.804647   -0.188419   -2.155965
H         1.303321    1.055103   -2.301179
H         2.316286    1.537238   -0.050236
O         1.318615    3.205120   -0.502772
H         0.443600    3.489766   -0.787465
C         1.687357   -1.777714   -0.192475
O         2.916902   -1.253690   -0.171265
O         1.345711   -2.610827   -0.980873
C        -2.630962   -0.123341   -0.093830
O        -3.390908   -0.030614    0.831885
O        -2.962119   -0.705853   -1.256164
H         2.939112   -0.643462    0.587167
H        -3.874359   -1.018443   -1.176870
