9
0 1
C         0.000000    1.090368    0.345844
O         0.000000    0.000000    1.151915
C         0.000000    0.716453   -0.953011
C         0.000000   -0.716453   -0.953011
C         0.000000   -1.090368    0.345844
H         0.000000    2.044825    0.843241
H         0.000000    1.372556   -1.807898
H         0.000000   -2.044825    0.843241
H         0.000000   -1.372556   -1.807898
