39
1 1
C        -2.514475   -2.357043   -0.926454
C        -1.132372   -1.699788   -0.830870
C        -2.063329   -1.100375    1.083247
C        -3.177787   -1.919867    0.412037
H        -3.058531   -2.007900   -1.801865
H        -2.419671   -3.440318   -0.993135
H        -4.087030   -1.335555    0.273794
H        -3.423641   -2.770252    1.047681
C        -0.791806   -1.833301    0.658285
H         0.132070   -1.331240    0.944920
H        -0.781812   -2.864152    1.008372
H        -0.390015   -2.026818   -1.552750
H        -2.202706   -0.829177    2.125645
N        -1.913930    0.137153    0.251896
N        -1.348185   -0.235757   -0.976025
C         1.089402    1.694614    0.494424
C         2.126824    0.689321    0.227267
C         2.522796    0.329801   -1.065229
C         2.705367    0.023550    1.309120
C         3.461028   -0.668746   -1.263133
H         2.115208    0.843981   -1.927825
C         3.646305   -0.976806    1.111579
H         2.420384    0.300832    2.318271
C         4.023722   -1.328439   -0.175654
H         3.765077   -0.928471   -2.269646
H         4.089803   -1.476013    1.964059
H         4.761061   -2.105284   -0.334242
C        -2.290349    1.320523    0.551223
C         0.378843    2.381275   -0.399300
H        -0.475540    0.277374   -1.086545
C        -2.132089    2.500422   -0.332217
C        -0.795134    3.239872   -0.043427
H        -0.803302    4.160733   -0.629058
H        -0.754112    3.529204    1.009407
H        -2.967773    3.177590   -0.147531
H        -2.166657    2.181915   -1.376227
H         0.864329    1.846507    1.548816
H        -2.717584    1.428611    1.543024
H         0.593572    2.288594   -1.461647
