45
0 1
C         1.667873   -2.462403   -0.497620
H         1.235812   -3.456192   -0.623136
H         0.240747   -1.826575   -2.018115
C         0.550646   -1.259276    1.088944
O         0.194651   -0.888290    2.166956
C        -2.100006    0.093591    0.720074
O        -3.120109    0.950433    0.266550
O        -1.327898    0.209494   -1.552267
H        -4.560248    3.731986    0.149421
H        -5.017585    2.342154   -0.847101
H        -1.711886    4.056214    0.417408
H        -1.034885    3.005904   -0.809703
C        -3.334172   -2.003204    0.032465
H         1.059459    0.416881   -2.370559
C         2.624399    0.434626   -0.901028
C         4.748913    0.682370    0.227789
C         2.913393    2.109054    0.819245
H         1.101028    1.811274   -0.278559
H         4.848790    2.197269    1.745758
H         4.371581   -0.737946   -1.329394
H         2.722097   -2.480395   -0.762019
C         0.872997   -1.389420   -1.246018
N         0.018520   -0.915569   -0.155947
O         1.572365   -2.105832    0.888871
C        -1.119493   -0.163767   -0.423924
B        -2.937718    2.266431   -0.047374
C        -4.197740    3.017659   -0.599020
H        -3.948948    3.611967   -1.483444
C        -1.562712    3.007463    0.150881
H        -0.894306    2.560496    0.890504
C        -3.013649   -3.260856   -0.236459
C        -2.761527   -1.216926    1.171306
C         1.733899   -0.283994   -1.879192
H         2.336195   -0.755090   -2.660889
C         3.951419    0.053647   -0.717885
C         4.229106    1.707797    1.004491
C         2.121169    1.479922   -0.129062
H         2.502093    2.916615    1.412713
H         5.778848    0.371975    0.356328
H        -2.045926   -1.814307    1.734990
H        -3.556842   -0.923190    1.861584
H        -3.452792   -3.792082   -1.072236
H        -2.309907   -3.810203    0.381721
H        -4.042212   -1.477894   -0.601689
H        -1.561320    0.523819    1.564115
