42
-1 1
C        -3.358486    0.474248   -0.250913
C        -3.544987   -1.034674   -0.134142
C        -2.414379   -1.749082   -0.905314
H        -4.539081   -1.309875   -0.521077
H        -3.522053   -1.340288    0.918414
C        -1.034779   -1.375901   -0.433490
H        -2.550698   -1.482813   -1.971917
H        -2.563504   -2.836682   -0.842172
C        -0.864035    0.132869   -0.466281
C        -0.629925   -2.104150    0.827156
H        -1.226289   -1.933677    1.766979
H         0.408875   -1.896538    1.117227
H        -0.684220   -3.188710    0.660725
C         0.539128    0.586952   -0.030668
C         1.637658   -0.008796   -0.916164
H         0.724780    0.274178    1.001966
H         0.610649    1.679507   -0.041282
C         3.031778    0.214246   -0.393492
H         1.551677    0.433065   -1.918731
H         1.414885   -1.071392   -1.028560
C         3.769554   -0.812558    0.031426
C         5.150927   -0.789907    0.616589
H         3.315085   -1.798379   -0.035165
H         5.585037    0.209784    0.649014
H         5.831191   -1.428995    0.042930
H         5.145836   -1.178888    1.640744
C         3.489776    1.648311   -0.367397
H         2.888750    2.227411    0.339474
H         3.339433    2.105887   -1.350574
H         4.538466    1.767208   -0.094580
C        -1.991227    0.992304    0.239278
H        -4.155000    1.016849    0.278934
H        -3.456263    0.743071   -1.313225
C        -1.924602    0.908878    1.767437
H        -2.725242    1.511262    2.217042
H        -0.973321    1.292723    2.145069
H        -2.028503   -0.114651    2.122499
C        -1.904809    2.471834   -0.160763
H        -2.795122    3.015845    0.178778
H        -1.843448    2.576179   -1.248820
H        -1.033742    2.967598    0.275175
H        -0.967737    0.432882   -1.528438
