42
1 1
C         1.013015    3.271492   -0.750053
C         0.003854    2.112874   -0.878749
C         0.840261    1.792376    1.142193
C         1.570002    3.073142    0.691868
H         1.789118    3.221963   -1.515208
H         0.505699    4.229659   -0.862455
H         2.651813    2.954447    0.721597
H         1.302397    3.903587    1.345741
C        -0.550073    2.005439    0.541994
H        -1.237923    1.181229    0.692348
H        -1.001175    2.937288    0.878194
H        -0.709323    2.174758   -1.696214
H         0.924958    1.524645    2.191709
N         1.381230    0.724388    0.277199
N         0.754694    0.832976   -0.960336
C        -0.244373   -1.498804   -0.626413
C        -1.584990   -1.088435   -0.268007
C        -2.081033   -1.188572    1.038803
C        -2.431859   -0.594739   -1.270310
C        -3.370485   -0.782730    1.334245
H        -1.466722   -1.602054    1.827852
C        -3.718833   -0.187462   -0.973736
H        -2.064267   -0.528741   -2.288171
C        -4.189465   -0.276064    0.332047
H        -3.745265   -0.872442    2.345966
H        -4.361953    0.191675   -1.757817
H        -5.199850    0.035824    0.565423
H        -0.067455   -1.624692   -1.688986
C         1.956596   -0.444817    0.616559
H         2.122332   -0.499333    1.690935
C         0.750831   -1.940025    0.247784
H         0.430789   -2.105816    1.272422
H         1.424241    0.814194   -1.725567
C         3.130040   -0.982231   -0.181170
H         4.034484   -0.468850    0.154735
H         3.001918   -0.768487   -1.246110
C         1.760556   -2.952891   -0.282844
H         1.548951   -3.941494    0.126915
H         1.652595   -3.031944   -1.367584
C         3.173863   -2.479366    0.049842
H         3.418663   -2.689250    1.095347
H         3.927070   -2.972826   -0.563428
