31
0 1
C        -4.345202   -0.975535    0.404128
C        -2.981089   -1.217184    0.362725
C        -2.079369   -0.230522   -0.049105
C        -2.605538    1.004027   -0.445585
C        -3.968354    1.249887   -0.395637
C        -4.848289    0.263437    0.031139
H        -5.019016   -1.758827    0.731284
H        -2.598407   -2.186050    0.664586
H        -1.943592    1.775050   -0.820905
H        -4.348715    2.215287   -0.708908
H        -5.913880    0.454983    0.061205
C        -0.644029   -0.527364   -0.052731
C         0.318375    0.406884   -0.020300
C         2.500804    1.160690    0.653755
C         2.195713   -1.133585   -0.161585
C         3.937684    1.180966    0.154828
H         2.489113    0.891922    1.723308
H         2.050202    2.151150    0.566547
C         3.638772   -1.162597   -0.650784
H         2.121944   -1.610748    0.830582
H         1.567796   -1.707580   -0.843254
C         4.526408   -0.226220    0.162034
H         4.526548    1.853638    0.783536
H         3.956692    1.582791   -0.863041
H         4.008791   -2.189778   -0.602267
H         3.658741   -0.860376   -1.702447
H         5.543795   -0.220988   -0.236082
H         4.591918   -0.587666    1.195136
N         1.682004    0.223661   -0.107650
H         0.040421    1.452543    0.072311
H        -0.381705   -1.578280   -0.055339
