37
0 1
C         1.262680    3.788556   -0.086695
O         0.680117    2.490887   -0.065159
H         0.466139    4.497817   -0.305394
C        -0.146142   -0.830146   -0.525274
C         1.049996   -0.123231    0.098783
C        -1.499848   -0.201610   -0.288152
C        -2.531029   -0.451062   -1.191476
C        -1.775962    0.587389    0.823525
C        -3.803736    0.061682   -0.988629
C        -3.046817    1.104826    1.031728
C         3.413869    0.175759    0.141059
C        -4.067094    0.842248    0.128850
C         2.345164   -0.730035   -0.458651
C         2.397756   -2.208163   -0.242607
C         1.275016   -2.905065   -0.095749
C        -0.121702   -2.325884   -0.079045
C        -0.756724   -2.569301    1.295297
O         2.831304    1.491294    0.083963
B         1.458283    1.396270    0.014424
H        -2.330707   -1.054798   -2.070848
H        -0.990717    0.814733    1.532343
H        -4.589087   -0.143152   -1.706715
H        -3.238866    1.720773    1.902410
H         4.353255    0.190144   -0.411957
H         3.620209   -0.077021    1.186319
H        -5.058341    1.248378    0.290607
H        -1.816101   -2.313217    1.295642
H        -0.263787   -1.978060    2.070656
H        -0.659493   -3.620647    1.575255
H         2.037457    3.857086   -0.852248
H         1.706260    4.026991    0.882085
H         1.334965   -3.981142    0.045256
H         3.357693   -2.716729   -0.254170
H         0.014378   -0.831226   -1.609230
H        -0.716055   -2.889832   -0.807474
H         1.055482   -0.344362    1.179595
H         2.361976   -0.540297   -1.542467
