7
0 1
C         1.415908    0.000000    0.000000
C         0.219363    0.000004   -0.000005
C        -1.236411   -0.000001    0.000002
H        -1.623862    0.872272    0.529665
H        -1.623864    0.022561   -1.020240
H        -1.623856   -0.894841    0.490583
H         2.478421   -0.000009    0.000011
