52
0 1
C         0.026652   -2.396407    0.057016
H        -0.008158   -3.377518    0.533356
H         0.184947   -2.567838   -1.028576
C         1.195562   -1.603886    0.594284
C        -0.201458    0.432629    0.568515
H        -0.578765    0.505625    1.592933
H        -0.177157    1.433637    0.164263
C        -1.214143   -0.382602   -0.240105
H        -0.865368   -0.406740   -1.292780
N        -1.241550   -1.737491    0.289287
C         2.347186    0.524060    0.236949
C         2.354108   -2.263847    0.955767
H         2.903366   -1.846609    1.783596
H         2.412526   -3.345252    0.870880
C         3.433252   -0.117136   -0.394276
H         3.802655    0.426810   -1.264018
C         3.968223   -1.390595   -0.239430
C         1.175906   -0.205069    0.556837
C         4.627098   -2.070459   -1.413660
H         4.455828   -3.148517   -1.377206
H         4.233085   -1.705750   -2.363601
H         5.711900   -1.919835   -1.406306
H         4.413955   -1.652455    0.703865
C        -2.587305    0.266417   -0.237601
C        -2.361257   -2.516005   -0.201077
H        -2.234974   -3.548408    0.131558
H        -2.391317   -2.529498   -1.306450
C        -3.648577   -1.936919    0.352035
H        -3.670971   -2.099769    1.433802
C        -3.739452   -0.463774    0.054832
H        -4.512724   -2.453457   -0.073753
C        -4.977895    0.175366    0.041878
H        -5.867793   -0.401858    0.270273
C        -2.713534    1.615022   -0.572287
H        -1.833231    2.188761   -0.835823
C        -5.089840    1.519306   -0.266976
H        -6.061433    1.998455   -0.273099
C        -3.947402    2.242047   -0.585626
H        -4.018082    3.290924   -0.847297
C         2.394541    2.075321    0.205154
C         1.773094    2.646449   -1.081010
H         0.718835    2.398961   -1.196670
H         2.295689    2.260789   -1.959459
H         1.862946    3.736214   -1.091390
C         3.857864    2.559754    0.252231
H         4.420765    2.291921   -0.641523
H         4.380717    2.143681    1.115419
H         3.877001    3.649153    0.334989
C         1.738579    2.676231    1.461659
H         0.666046    2.520413    1.525713
H         1.913809    3.754845    1.480712
H         2.189532    2.250335    2.360931
