16
-1 1
C        -1.782882    1.076111   -0.393469
C        -1.193591   -0.218024    0.112762
C        -0.004411   -0.071825    1.016188
O        -1.639918   -1.298585   -0.234190
C         1.233487    0.237817    0.146900
H        -2.426827    1.490954    0.389996
H        -0.974238    1.790423   -0.572778
H        -2.380454    0.897106   -1.288020
C         1.870969   -1.031509   -0.398955
H         2.244998   -1.681591    0.406639
H         2.712370   -0.779352   -1.048376
H         1.161200   -1.639471   -0.975888
C         1.597094    1.509575   -0.079867
H         2.492140    1.519846   -0.736535
H         0.115695   -0.997287    1.589297
H        -0.149536    0.775182    1.687839
