32
1 1
C        -1.979865    1.027778    0.188651
N        -0.939315    0.413523   -0.275084
N         0.181344    1.190820   -0.576292
C         1.299479    0.655070   -0.211077
C         2.527669    1.342494   -0.510875
C         1.323276   -0.679058    0.475649
C         3.703080    0.770477   -0.195859
H         2.463778    2.304427   -1.001715
C         2.689333   -1.215643    0.753991
C         3.791043   -0.533782    0.441489
H         4.625696    1.288521   -0.429325
H         2.747834   -2.185792    1.234005
H         4.771073   -0.938380    0.658394
C        -3.275190    0.324372    0.413778
C        -1.885234    2.474615    0.512432
H        -1.597196    3.029419   -0.384276
H        -2.834802    2.845325    0.891372
H        -1.099769    2.657402    1.247564
C        -0.912579   -1.037107   -0.675898
C         0.477969   -1.627214   -0.394232
C        -2.028163   -1.789095    0.027582
C        -3.356756   -1.080153   -0.165570
H        -3.427150    0.317371    1.500924
H        -4.063976    0.974036    0.024453
H        -3.594491   -1.029634   -1.231469
H        -4.167269   -1.630078    0.311986
H        -2.058249   -2.800255   -0.381025
H        -1.791233   -1.882587    1.093192
H         1.009998   -1.805698   -1.328759
H         0.369011   -2.589708    0.106444
H         0.806064   -0.557849    1.439000
H        -1.097895   -1.023440   -1.751494
