41
0 1
C        -1.186560    2.125575   -0.356004
C         0.935885    0.754070   -0.130400
C        -0.047583    2.604897   -1.236224
C        -0.674565    2.018053    1.067873
C         0.436337    1.306624    1.192560
C         1.063523    1.890703   -1.128082
N         2.021258   -0.198491   -0.070506
C         3.301871    0.197734    0.368637
C         1.600685   -1.463716   -0.475788
O         2.297448   -2.460178   -0.520070
C         0.168861   -1.359965   -0.835306
C        -0.218153   -0.099298   -0.648214
C        -1.500620    0.648748   -0.834502
H        -0.167047    3.450262   -1.900700
H        -1.201380    2.475883    1.893624
H         0.961484    1.087608    2.111127
H         1.984058    2.043756   -1.672335
C        -2.710878    0.057548   -0.145433
C        -2.618931   -0.668546    1.038419
C        -3.971068    0.277846   -0.696095
C        -3.760754   -1.156359    1.658193
H        -1.647718   -0.858260    1.476117
C        -5.114606   -0.207476   -0.078789
H        -4.056670    0.834097   -1.623829
C        -5.012141   -0.926956    1.103679
H        -3.670712   -1.722239    2.577755
H        -6.085542   -0.028310   -0.524838
H        -5.901943   -1.311665    1.586962
O         3.497453    1.353345    0.695153
N         4.228687   -0.775276    0.387963
H         3.945661   -1.703042    0.092920
C         5.580099   -0.485963    0.819150
H         6.042514    0.271397    0.183478
H         5.595205   -0.118908    1.847021
H         6.163098   -1.403429    0.760619
C        -0.592837   -2.546589   -1.313783
H        -0.130624   -2.961794   -2.212122
H        -0.585742   -3.337209   -0.559901
H        -1.627748   -2.288362   -1.533853
H        -1.718199    0.698246   -1.904610
H        -2.078904    2.741436   -0.439657
