16
0 2
O        -2.711645   -1.284800   -0.000027
C        -2.427919   -0.105145   -0.000005
O        -3.371096    0.863941   -0.000006
C        -1.083819    0.416781    0.000026
C         0.059025   -0.519560    0.000039
H        -0.915001    1.484744    0.000041
C         1.395983    0.177152    0.000007
H         0.014396   -1.195981   -0.861907
H         0.014418   -1.195929    0.862028
C         3.718817   -0.172173   -0.000021
H         3.878024    0.438718   -0.888093
H         4.384736   -1.030443   -0.000016
H         3.878048    0.438746    0.888026
O         1.565527    1.366587   -0.000013
H        -4.231573    0.423523   -0.000027
O         2.392769   -0.713941    0.000005
