29
0 1
C        -6.279991    0.978827   -0.262693
C        -4.889604    0.801027    0.243817
H        -6.484025    2.032937   -0.471762
H        -7.009183    0.661226    0.488243
H        -6.452917    0.406664   -1.175010
C        -3.953447    0.041609   -0.329573
C        -2.617562   -0.092804    0.206908
C        -1.650187   -0.841138   -0.336390
H        -2.383164    0.452994    1.117013
C        -0.322936   -0.910872    0.285501
H        -1.815758   -1.413075   -1.242573
O        -0.005719   -0.320818    1.298041
S         0.801426   -1.966597   -0.604290
C         2.266041   -1.908099    0.472470
C         3.244002   -0.789716    0.155646
H         2.756340   -2.872837    0.344732
H         1.905998   -1.843412    1.499967
N         2.652621    0.508165    0.396998
H         3.570386   -0.832429   -0.884785
H         4.137857   -0.928628    0.774984
C         3.135222    1.626725   -0.196153
O         4.112867    1.610818   -0.923772
C         2.382087    2.901666    0.104875
H         3.056037    3.594611    0.610076
H         1.498538    2.743288    0.724070
H         2.085706    3.359550   -0.839075
H         1.820562    0.551623    0.968862
H        -4.630896    1.338438    1.153877
H        -4.185586   -0.505902   -1.239574
