31
0 2
C         1.478759   -1.472452   -0.250173
C         2.878084   -0.851835   -0.166933
C         2.906860    0.399981    0.716243
C         1.868540    1.441040    0.283718
C         0.491111    0.800189    0.223537
C         0.482839   -0.416510   -0.700825
C        -0.676178    1.637781   -0.299642
C        -1.728370    0.621118   -0.823521
C        -1.013526   -0.768623   -0.792141
C        -1.583574   -1.440902    0.416573
C        -2.968242    0.456650    0.068583
H        -2.026666    0.891678   -1.837317
C        -2.566895   -0.578675    1.131475
H        -3.793820    0.056088   -0.526049
H        -3.304273    1.404046    0.495296
H        -1.267801   -2.415001    0.767022
H        -3.420717   -1.133483    1.531811
H        -2.098530   -0.080726    1.995862
H        -1.091322    2.304092    0.460567
H        -0.327274    2.271009   -1.121226
H         1.483268   -2.327124   -0.933879
H         1.187340   -1.853512    0.734742
H         3.207313   -0.583144   -1.177711
H         3.595987   -1.586687    0.207495
H         1.876795    2.292741    0.970789
H         2.127455    1.832411   -0.708136
H         2.704054    0.109117    1.753754
H         3.908800    0.837704    0.707556
H         0.242459    0.442875    1.232152
H         0.790723   -0.068870   -1.698355
H        -1.210240   -1.359781   -1.695725
