35
0 1
C         2.001752    0.216064   -0.159216
C         2.124479   -1.190325   -0.162450
C         3.390875   -1.749989   -0.049788
C         4.524755   -0.955477    0.050909
C         4.400777    0.425690    0.038799
C         3.147106    1.006448   -0.063782
H         3.489808   -2.829885   -0.050103
H         5.502007   -1.415943    0.133280
H         5.280207    1.053801    0.112254
H         3.042605    2.081367   -0.066934
C         0.669193    0.761427   -0.216152
C        -0.553049    0.584384   -0.209117
C        -1.699921   -0.280762   -0.166907
C        -2.949558    0.066778   -0.678663
C        -1.499089   -1.566319    0.375915
C        -4.003597   -0.831367   -0.635487
H        -3.074379    1.042087   -1.130034
C        -2.571098   -2.448597    0.414928
C        -3.818093   -2.088856   -0.078628
H        -4.968051   -0.551306   -1.041478
H        -2.423361   -3.437329    0.835124
H        -4.639893   -2.793472   -0.037082
C        -0.129037   -1.967826    0.848191
H        -3.129735    2.248620    0.922821
C        -2.339685    2.995521    0.927030
N        -1.392372    2.608863   -0.117556
H        -1.872557    3.012021    1.914952
H        -2.781431    3.970656    0.712544
N        -0.275640    3.166222   -0.100929
N         0.849266    2.971255   -0.225924
H         0.226659   -1.243872    1.584519
H        -0.193463   -2.929444    1.359323
C         0.909046   -2.064832   -0.313791
H         0.409479   -1.802620   -1.249435
H         1.234190   -3.100834   -0.419630
