13
0 1
C         1.815315    0.000000    0.005602
C         1.150887    1.209639   -0.001488
C        -0.236097    1.202484   -0.013530
C        -0.936100   -0.000002   -0.007742
C        -0.236096   -1.202485   -0.013497
C         1.150890   -1.209638   -0.001474
S        -2.727776   -0.000028   -0.071307
H         1.714646    2.133159   -0.002616
H        -0.781079    2.137321   -0.027009
H        -0.781079   -2.137322   -0.026925
H         1.714650   -2.133158   -0.002585
F         3.162355    0.000003    0.014986
H        -2.936707    0.000437    1.257938
