64
1 1
N         0.253149   -1.280743   -0.740420
C         1.640474   -1.032052   -0.815791
C         2.208459    0.209076   -1.104637
C         3.581355    0.364116   -1.121770
C         4.426070   -0.704945   -0.829493
C         3.866216   -1.942814   -0.520725
C         2.488592   -2.095396   -0.520374
O         5.748809   -0.444977   -0.864139
C         6.658967   -1.507866   -0.626275
C        -0.815986   -0.605333   -1.261371
C        -2.093548   -1.398838   -1.262606
C        -2.087670   -2.790762   -1.294301
C        -3.284538   -3.495588   -1.309916
C        -4.493015   -2.817173   -1.291573
C        -4.503947   -1.427183   -1.266947
C        -3.313636   -0.721029   -1.255861
C        -0.601788    0.298834   -2.460367
O        -2.564389    2.743102   -0.720121
C        -1.550936    3.158439   -0.209872
O        -1.148250    4.423723   -0.288555
C        -2.007744    5.315717   -1.023812
C        -0.650616    2.269193    0.557487
C        -1.195929    0.953043    0.820396
C        -0.450935    0.079052    1.695453
C         0.829970    0.396983    2.036032
N         1.322599    1.602808    1.623814
C         0.625570    2.562346    0.941092
C         1.783969   -0.441614    2.817210
C        -1.064125   -1.215018    2.090874
O        -2.381913   -1.108648    2.203998
C        -3.105598   -2.322760    2.472842
C         1.372755    3.837344    0.706311
O        -0.453716   -2.247755    2.242307
H         6.531411   -2.306216   -1.361953
H        -2.760144   -2.766101    3.404884
H        -5.444738   -0.891165   -1.258001
H         0.022560   -2.063039   -0.142325
H         6.540334   -1.911079    0.383250
H         7.651695   -1.078210   -0.728288
H        -3.267624   -4.577606   -1.349850
H        -5.425339   -3.367736   -1.306151
H        -2.962363   -3.023745    1.652068
H        -4.147037   -2.026031    2.546189
H        -0.170031    1.262431   -2.193241
H        -1.557138    0.488996   -2.941659
H         0.064948   -0.188428   -3.174799
H         2.277240    1.816819    1.875370
H        -1.134304    0.306060   -0.345552
H        -2.277768    0.893241    0.878538
H         2.418247    0.183973    3.447826
H         2.422142   -0.993823    2.121289
H         1.267088   -1.171917    3.430795
H         2.422304    3.725719    0.980999
H         0.941153    4.644995    1.297904
H         1.311866    4.143332   -0.335684
H        -1.521565    6.285568   -0.980732
H        -2.990138    5.354239   -0.556558
H        -2.107412    4.976115   -2.053421
H        -1.154289   -3.337669   -1.344848
H        -3.330906    0.363504   -1.232905
H         1.589851    1.066565   -1.315189
H         2.065821   -3.066162   -0.287192
H         4.488059   -2.795922   -0.290846
H         4.027188    1.320640   -1.363626
