22
0 1
N         2.001316    0.403372   -0.610798
C         1.470324    1.667101   -0.126034
C        -0.053970    1.623693   -0.102794
H         1.874059    1.848938    0.870042
H         1.778061    2.466208   -0.795996
O        -0.731602    2.165430   -0.953455
N        -0.571940    0.884657    0.916086
H         0.093533    0.331836    1.449057
C        -1.925658    0.419087    0.827017
C        -2.051572   -0.790600   -0.078580
H        -2.306959    0.153754    1.814240
H        -2.562407    1.208806    0.427672
O        -1.144831   -1.346630   -0.634196
O        -3.330307   -1.185524   -0.181485
H        -3.356837   -1.953403   -0.769459
C         2.082274   -0.687894    0.193914
C         2.443107   -1.981640   -0.481181
O         1.846811   -0.620748    1.392496
H         2.033013    0.262267   -1.607855
H         2.991985   -1.836742   -1.412150
H         1.511269   -2.508867   -0.698637
H         3.031053   -2.587709    0.205120
