19
1 1
N         2.333651    1.385551    0.000037
H         3.221988    1.879655   -0.000010
C         2.405319    0.127493   -0.000046
C         1.142575   -0.694433    0.000019
O         3.476525   -0.673472   -0.000188
N         0.018463    0.223262    0.000160
H         1.122041   -1.339727    0.880668
H         1.121880   -1.339644   -0.880685
C        -1.234257   -0.176680    0.000033
C        -2.327108    0.909806    0.000152
O        -1.621334   -1.343978   -0.000151
N        -3.598234    0.126685    0.000004
H        -2.272325    1.537202   -0.887330
H        -2.272379    1.536959    0.887809
H        -4.172765    0.280876   -0.828340
H        -4.172798    0.280619    0.828374
H        -3.213902   -0.873826   -0.000140
H         0.298028    1.205470    0.000243
H         4.302378   -0.173590   -0.000230
