51
0 1
C        -1.304497    2.521784    0.958721
H        -1.729347    3.502140    1.178283
H        -0.852581    2.137083    1.894699
C        -0.220092    2.658602   -0.080101
C        -0.870717    0.449484   -0.990657
H        -1.428384    0.855550   -1.839926
H        -0.481412   -0.521547   -1.277261
C        -1.849566    0.317601    0.184964
H        -1.278986   -0.071567    1.052776
N        -2.368571    1.642136    0.504593
C         1.570903    1.054357   -0.722588
C         0.202464    3.845444   -0.501077
C         2.649780    1.889815   -0.181926
C         3.950510    1.758414   -0.430376
C         0.262747    1.370995   -0.628473
C         5.012148    2.606667    0.189559
H         4.588545    3.358826    0.857433
H         5.712111    1.993457    0.765188
H         5.600865    3.120326   -0.576314
C        -2.955456   -0.681163   -0.102761
C        -3.483343    1.597454    1.431675
H        -3.726540    2.619406    1.729372
H        -3.223098    1.041030    2.350794
C        -4.671890    0.952589    0.745054
H        -5.024837    1.620644   -0.046349
C        -4.292503   -0.380441    0.156162
H        -5.494536    0.822932    1.453011
C        -5.272289   -1.334455   -0.112050
H        -6.310033   -1.092324    0.092091
C        -2.629157   -1.946859   -0.590181
H        -1.591678   -2.206128   -0.763016
C        -4.942496   -2.578813   -0.619102
H        -5.717898   -3.308098   -0.820360
C        -3.608695   -2.889212   -0.851178
H        -3.331557   -3.864852   -1.231579
S         2.046897   -0.449311   -1.570195
C         2.742540   -1.426413   -0.251819
C         2.350696   -1.282854    1.074620
C         2.894580   -2.105983    2.049222
C         3.818480   -3.085332    1.710192
C         4.202582   -3.231944    0.384353
C         3.674380   -2.402312   -0.593806
H         1.627352   -0.524008    1.343999
H         2.588218   -1.983013    3.081301
H         4.237819   -3.728098    2.474262
H         4.926113   -3.989614    0.108048
H         3.989845   -2.506841   -1.625340
H         0.970775    3.936220   -1.258424
H        -0.219340    4.762616   -0.105979
H         2.329926    2.665113    0.505819
H         4.281640    0.990240   -1.122114
