23
0 2
C        -0.258153   -0.968032    0.255067
C         1.001766   -0.092862    0.018357
C         0.429883    1.306718   -0.349133
C        -1.056485    1.262139    0.002271
H         0.543173    1.482095   -1.422918
H         0.962055    2.111999    0.162126
C        -1.451197   -0.193203   -0.331391
H        -1.654290    1.998364   -0.537829
H        -1.209922    1.434785    1.072729
C         1.852057   -0.020220    1.287474
H         2.755094    0.573933    1.122420
H         2.161036   -1.018611    1.609797
H         1.292865    0.437189    2.108103
C         1.845146   -0.648777   -1.130035
H         2.671193    0.026344   -1.370913
H         1.243060   -0.774916   -2.033889
H         2.271192   -1.621798   -0.870605
C        -2.772674   -0.616384    0.186526
H        -2.917538   -0.745464    1.253579
H        -3.635571   -0.719819   -0.457750
H        -0.426242   -1.099400    1.329045
H        -0.158232   -1.966411   -0.175984
H        -1.439934   -0.294561   -1.422724
