16
-1 1
C        -1.748819    1.141747   -0.373565
C        -1.222917   -0.188060    0.151598
C        -0.295167   -0.107935    1.208538
O        -1.555997   -1.243161   -0.435799
C         1.483508    0.255754   -0.004787
H        -2.526207    1.533784    0.290237
H        -0.933327    1.871354   -0.411925
H        -2.174313    0.996259   -1.368166
H        -0.063836   -1.024640    1.742823
H        -0.196510    0.816510    1.759000
C         1.734269   -1.172144   -0.308769
H         2.054302   -1.714057    0.585995
H         2.526545   -1.253137   -1.062951
H         0.829791   -1.658614   -0.681751
C         1.780374    1.457667   -0.134479
H         2.544043    2.055655   -0.598077
