26
0 1
C         2.577036    1.242646   -0.348595
C         1.280041    1.223418    0.150913
C         0.663458    0.023144    0.488468
C         1.380353   -1.160522    0.317424
C         2.672765   -1.145212   -0.182277
C         3.277961    0.059242   -0.518634
H         3.037179    2.188941   -0.607429
H         0.754412    2.161696    0.271397
H         0.905137   -2.098620    0.575946
H         3.211412   -2.077020   -0.308457
H         4.287946    0.073472   -0.910148
C        -0.734277   -0.051794    1.094135
C        -1.634092    1.157767    0.839527
C        -2.098599    1.217219   -0.614603
C        -1.790878   -1.259820   -0.673905
C        -2.736953   -0.115637   -1.001104
H        -1.246485    1.416751   -1.271884
H        -2.805446    2.038856   -0.752244
H        -0.901360   -1.207082   -1.315032
H        -2.264455   -2.228887   -0.832385
O        -1.401785   -1.246824    0.693772
H        -2.982485   -0.139908   -2.066457
H        -3.670018   -0.254401   -0.445761
H        -2.506277    1.050606    1.490598
H        -1.132955    2.079591    1.139812
H        -0.613213   -0.172104    2.173776
