35
1 1
C        -1.572622    1.301014   -0.183660
N        -0.275218    1.034212   -0.149922
N         0.405253    0.094361   -0.504900
C         1.778779    0.069888   -0.206528
C         2.470609   -1.034488   -0.697841
C         2.424878    1.061631    0.536637
C         3.827041   -1.151427   -0.444876
H         1.938088   -1.781749   -1.272141
C         3.775708    0.933384    0.782679
H         1.868363    1.913320    0.906398
C         4.474676   -0.170445    0.293089
H         4.377921   -2.002942   -0.821920
H         4.294967    1.690845    1.355363
H         5.535495   -0.260734    0.491257
C        -2.337379    1.035778    1.090648
H        -2.076576    1.868485    1.755270
H        -3.398873    1.161883    0.868947
C        -1.981831    2.467744   -1.032842
H        -1.418922    2.505102   -1.963818
H        -3.048604    2.423659   -1.243309
H        -1.788972    3.387913   -0.473220
C        -2.472790   -0.334227   -1.550359
C        -1.697231   -1.379205   -1.198761
H        -3.388681   -0.119823   -1.015507
H        -2.361774    0.120758   -2.526588
C        -1.837635   -2.174585    0.056571
H        -2.269826   -3.142234   -0.226900
H        -0.837958   -2.414663    0.432012
H        -0.937209   -1.716412   -1.894015
C        -2.670020   -1.551052    1.175980
C        -2.082810   -0.286881    1.815822
H        -1.010445   -0.421877    1.990383
H        -2.525926   -0.173127    2.806835
H        -3.691625   -1.357724    0.834559
H        -2.765931   -2.303476    1.960793
