22
-1 1
C         0.925359   -0.017711    0.314155
C         0.024476   -1.242976   -0.002875
C        -1.359078   -0.993447    0.573992
H         0.461668   -2.119930    0.471243
H        -0.029783   -1.457493   -1.081752
C        -1.988807    0.249931   -0.049063
C        -1.063427    1.464810    0.035154
C         0.341077    1.230983   -0.440583
O         1.027781    0.212364    1.625788
C         2.335691   -0.313058   -0.225153
O         2.818049   -1.402728   -0.437883
O         3.105168    0.798847   -0.361522
O        -1.478691    2.523487    0.445930
O        -2.321584   -0.009249   -1.427310
H        -2.934741    0.495120    0.430638
O        -2.246523   -2.098615    0.406824
H        -1.244458   -0.829755    1.644485
H         3.994931    0.472711   -0.548819
H        -2.550256   -2.064403   -0.506888
H        -1.501224   -0.148842   -1.910408
H         0.946176    2.105328   -0.214916
H         0.332335    1.083223   -1.531963
