22
0 2
C         2.188118   -0.182736    0.066647
C         1.341612   -0.111499   -1.167785
C        -0.045625    0.393162   -0.795901
O        -0.298728    1.552653   -0.599821
C        -2.661401    0.068691    0.017407
C        -2.575982    0.393302    1.499688
C         2.715243    1.089271    0.633087
C         2.118691   -1.396269    0.928144
H         1.753704    0.606846   -1.881228
H        -3.542388   -0.531179   -0.213038
H        -2.698511    0.977067   -0.582770
H        -2.525146   -0.515229    2.102001
H        -3.457448    0.960082    1.809866
H        -1.695290    1.000462    1.709611
H         3.088916    1.754921   -0.149204
H         3.520766    0.902228    1.346823
H         1.930967    1.650048    1.163594
H         1.962504   -2.304008    0.340724
H         1.288199   -1.340777    1.648463
H         3.034580   -1.515444    1.512966
H         1.263865   -1.090243   -1.646783
S        -1.251177   -0.906220   -0.590637
