18
1 2
N         1.113871    1.142410   -0.524772
H         1.767030    1.884833   -0.764083
C         1.703930    0.082269   -0.080660
C         1.054064   -1.162909    0.219056
O         3.021092   -0.038434    0.130341
N        -0.265168   -1.466709    0.007704
H         1.699808   -2.002709    0.431554
C        -1.396030   -0.679311    0.028009
C        -1.408586    0.583981    0.877591
O        -2.394410   -0.986790   -0.572870
N        -1.443112    1.730347   -0.071208
H        -0.539597    0.703769    1.518846
H        -2.319851    0.562734    1.472104
H        -0.454114    1.687234   -0.501840
H        -1.600445    2.623544    0.395985
H        -2.171613    1.592832   -0.777159
H        -0.460586   -2.409397   -0.317597
H         3.506502    0.772446   -0.063611
