21
0 1
C         0.522520   -1.180247   -0.115441
C         0.342029   -0.875406    1.346777
C         0.492735    1.169434    0.244409
C         0.326211    0.437499    1.548550
S         1.764240    0.119427   -0.646613
C        -2.626651   -0.170793    0.359930
C        -0.709891   -0.659029   -0.892810
C        -0.710360    0.883716   -0.686846
C        -2.104191    1.185152   -0.117970
H        -2.434594   -0.321791    1.424266
H        -2.744102    1.582158   -0.906873
H        -2.076336    1.918747    0.688968
H        -3.693045   -0.303705    0.174630
O         3.026672   -0.003702    0.140232
O        -1.937982   -1.159835   -0.402326
H         0.205024   -1.640839    2.096983
H         0.183964    0.935823    2.497286
H        -0.639902   -0.942632   -1.943705
H         0.837619   -2.186577   -0.375433
H        -0.559850    1.400747   -1.634239
H         0.789439    2.213582    0.301086
