43
0 1
C        -0.781186   -1.792929    0.530569
H        -0.548820   -2.301698    1.484789
C        -1.784898   -0.690839    0.780530
C        -0.021574    1.009588    0.286835
H         0.227017    1.340277   -0.724385
H         0.169890    1.859665    0.948706
C         0.918829   -0.144114    0.634967
H         0.859019   -0.338360    1.723519
N         0.436079   -1.314022   -0.091976
C        -2.441775    1.455884   -0.202598
C        -3.035573   -1.028095    1.272667
H        -3.448282   -0.393672    2.036057
H        -3.293265   -2.079856    1.378041
C        -3.721557    1.020051   -0.571886
C        -4.553350    0.082692    0.027324
C        -1.477740    0.614937    0.386973
H        -4.855475    0.245112    1.045413
H        -4.027911    1.362376   -1.562430
C        -5.585193   -0.641932   -0.796713
H        -5.758153   -1.645512   -0.403043
H        -6.547841   -0.119627   -0.773173
H        -5.271963   -0.741324   -1.837065
C         1.421820   -2.366869   -0.231388
H         1.797270   -2.704211    0.752519
H         0.939448   -3.225395   -0.704246
C         2.358564    0.203186    0.316073
C         3.141202   -0.598504   -0.513455
C         2.572906   -1.870181   -1.084293
H         2.207685   -1.693428   -2.100578
H         3.355548   -2.630534   -1.146273
H        -1.243968   -2.541184   -0.122357
C         4.456584   -0.224244   -0.782672
H         5.060535   -0.855216   -1.426343
C         2.922316    1.347863    0.879681
H         2.328852    1.962355    1.546799
C         5.001774    0.924320   -0.236634
H         6.026607    1.198471   -0.456142
C         4.229309    1.712518    0.607587
H         4.646634    2.606285    1.055509
C        -1.974028    2.753215   -0.825171
H        -1.230772    2.594717   -1.611362
H        -1.510713    3.399499   -0.075731
H        -2.812464    3.300137   -1.254771
