28
0 2
N        -0.319081   -0.375176   -0.487895
S         0.973748   -1.414794   -0.562597
O         1.567574   -1.420615    0.945578
C         2.435103   -0.339880    1.362612
C         1.644671    0.887453    1.792896
H         2.979721   -0.759034    2.206009
H         3.138282   -0.125310    0.558042
C         0.914578    1.614512    0.684024
H         2.355370    1.581601    2.259347
H         0.944752    0.590612    2.578241
C         1.740349    2.307911   -0.373681
H         0.102114    2.239560    1.060861
C        -1.388857   -0.797332    0.395217
H        -1.666860   -1.828439    0.163968
C        -2.600692    0.074502    0.164781
F        -3.067234   -0.011339   -1.081504
F        -3.588061   -0.288177    1.000892
F        -2.330329    1.372509    0.406224
O         1.951396   -0.802854   -1.424530
O         0.475713   -2.745914   -0.770825
C         0.888524    2.889049   -1.496481
H         2.308874    3.108015    0.120231
H         2.473231    1.615342   -0.793018
H         0.354892    2.096341   -2.023882
H         1.507724    3.417399   -2.222691
H         0.148722    3.593627   -1.108289
H         0.247308    0.758961    0.051953
H        -1.129427   -0.744915    1.457543
