14
-1 1
O        -0.326863   -0.695573    1.398723
C        -0.454451   -0.439600    0.101567
C        -1.851411    0.147973   -0.135182
O        -2.808963   -0.812570   -0.248777
O        -2.176899    1.315244   -0.137655
C         0.579976    0.608423   -0.454824
C         1.951346    0.059860   -0.293195
H         0.458671    1.532688    0.105848
H         0.407122    0.782404   -1.520873
O         2.455627   -0.808889   -0.968886
O         2.648642    0.623901    0.721236
H        -3.649715   -0.336588   -0.228943
H         3.465311    0.111924    0.789808
H        -0.366501   -1.327267   -0.573158
