13
0 1
C         1.853657    0.133499    0.000001
C         0.860877    0.979882    0.000005
H         1.037810    2.048773    0.000005
C         2.847403   -0.695407    0.000003
C        -0.563828    0.585194    0.000012
O        -1.470734    1.377616    0.000004
O        -0.740395   -0.742194   -0.000004
C        -2.099080   -1.186132   -0.000015
H        -2.618120   -0.824605   -0.887606
H        -2.051199   -2.271719   -0.000021
H        -2.618130   -0.824615    0.887575
H         3.272240   -1.056720   -0.929542
H         3.272251   -1.056705    0.929549
