44
0 1
C         2.015726   -1.055015    0.309805
C         0.593081   -1.206975   -0.157600
C        -0.342686    0.710203    0.734776
C         2.631363    0.230356   -0.240560
H         2.035543   -1.019315    1.403286
C         1.993017    1.522939    0.256820
H         3.688544    0.253628    0.029668
H         2.576588    0.236171   -1.333164
C         0.501924    1.669063   -0.054888
H         2.120949    1.583228    1.349852
C        -0.270233   -2.213947    0.214970
C        -1.621969   -2.114852   -0.184157
C        -1.712070    0.565171    0.626291
C        -2.070401   -1.004489   -0.851618
C         0.134017   -3.260454    1.218679
H        -0.719799   -3.868705    1.519227
H         0.558521   -2.803166    2.117069
H         0.906875   -3.915736    0.814643
H         0.180000    2.684690    0.187083
H         0.341549    1.562102   -1.132870
C        -3.484952   -0.585615   -1.053396
H        -3.854535   -0.804641   -2.056782
H        -4.162034   -1.040909   -0.327323
C        -2.541876    1.456100   -0.253445
O         2.833294   -2.190660    0.021436
O         2.743795    2.565272   -0.342742
O        -2.404407    2.643264   -0.345963
O        -3.545126    0.848254   -0.937205
C         2.913658   -2.570420   -1.335784
H         3.378008   -1.796377   -1.955583
H         3.538900   -3.461459   -1.368870
H         1.928090   -2.813998   -1.747815
C         2.650175    3.815549    0.299809
H         2.923498    3.735200    1.359779
H         1.647872    4.250481    0.225791
H         3.354628    4.480644   -0.197549
C        -2.442321    0.003866    1.827123
H        -2.497668    0.756499    2.618211
H        -1.900200   -0.858632    2.219135
H        -3.461985   -0.309052    1.601578
H         0.373050   -0.679260   -1.074427
H         0.077879    0.407641    1.688628
H        -1.392493   -0.495318   -1.527207
H        -2.340945   -2.781629    0.282478
