9
0 1
C        -1.637814   -0.349840   -0.053366
C        -0.497007    0.643021    0.091003
H        -1.588747   -0.865347   -1.013451
H        -2.600737    0.163382    0.015235
H        -1.605351   -1.105085    0.734929
S         1.163671   -0.099244   -0.079852
H        -0.550841    1.173215    1.041893
H        -0.537137    1.395314   -0.697938
H         1.073007   -0.932663    0.971150
