15
-1 1
O         3.003817    0.038747    0.130507
C         1.801224   -0.189401   -0.091659
O         1.259311   -1.217110   -0.561586
C         0.815550    0.958020    0.263753
C        -0.548275    0.740973   -0.360347
H         1.237978    1.906417   -0.082763
H         0.720380    1.015977    1.350974
C        -1.202096   -0.498783    0.219699
O        -1.211057   -0.834755    1.372212
O        -1.941130   -1.158185   -0.710603
H        -2.295841   -1.934547   -0.258535
N        -1.452132    1.876150   -0.093931
H        -0.418099    0.557186   -1.429616
H        -0.942602    2.744312   -0.203360
H        -2.222845    1.883173   -0.752096
