31
-1 1
C        -1.175336    0.923045    0.305232
C        -2.479117    0.133318    0.220054
C        -2.158359   -1.274306    0.727687
H        -3.196517    0.604216    0.895221
C        -0.963366   -1.891896   -0.014587
C         0.032577   -1.039002   -0.455006
O        -0.196058    0.389911   -0.529249
C        -1.325552    2.392456   -0.113964
C         1.135098   -1.434595   -1.335409
H         1.182265   -0.788488    1.160750
O         2.504400   -1.274163   -0.785061
H         1.137639   -0.864663   -2.269451
H         1.054510   -2.498709   -1.537873
P         2.928342   -0.057424    0.149233
O         4.351362   -0.029190    0.492641
O         1.927724   -0.188443    1.413142
O         2.458587    1.284552   -0.593169
H         1.490099    1.350549   -0.680298
O        -0.980087   -3.144049   -0.125224
O        -3.258567   -2.143621    0.588887
H        -1.879856   -1.202612    1.784362
H        -2.828009   -2.983354    0.333830
O        -2.347774    3.019319   -0.131006
O        -0.130027    2.945871   -0.388587
H        -0.275683    3.883820   -0.569787
O        -0.754115    0.955380    1.656111
H         0.213395    1.019309    1.676066
C        -3.043143    0.112304   -1.197008
H        -3.909286   -0.547570   -1.222584
H        -3.348363    1.109521   -1.514448
H        -2.305699   -0.273145   -1.904153
