52
0 1
C        -0.995073   -2.773659   -0.480642
C        -0.184826   -1.573462   -1.054403
C        -2.409676    0.024917    0.401260
H        -0.294902   -3.582805   -0.259241
C        -0.879833   -0.906619   -2.263217
H        -0.367776    0.029594   -2.512017
H        -0.735834   -1.560443   -3.130220
H        -3.023258    0.699244    1.005242
H         0.750305   -1.986348   -1.441922
C        -2.376507   -0.643664   -2.131389
H        -2.743626   -0.271490   -3.093105
H        -2.895310   -1.592828   -1.973321
C        -2.802209    0.344880   -1.051443
H        -2.437591    1.340327   -1.315884
H        -3.894877    0.415920   -1.083597
C        -2.844117   -1.404492    0.812064
H        -3.239713   -1.361472    1.831553
C        -1.782639   -2.508622    0.808949
H        -1.066714   -2.302299    1.610146
H        -2.274586   -3.441203    1.103092
H        -3.689809   -1.704435    0.184212
H        -1.662547   -3.164570   -1.254607
C        -0.933527    0.341695    0.750742
H        -0.809942    0.259525    1.843327
Si        -0.502946    2.203326    0.543278
C         0.032678    2.685351   -1.194397
H        -0.754455    2.564308   -1.939523
H         0.333526    3.737128   -1.200372
H         0.896260    2.096848   -1.508857
C         0.895116    2.682726    1.706822
H         0.944468    3.772874    1.780500
H         0.745993    2.294522    2.717575
H         1.862953    2.336455    1.341454
C        -2.013118    3.214866    1.027156
H        -2.337811    2.982367    2.044762
H        -1.766467    4.279701    0.995584
H        -2.862275    3.053032    0.361010
B         0.138879   -0.591179    0.132686
C         1.730952   -1.964901    1.511786
C         1.609599   -0.647104    0.801248
C         1.574635   -2.121606    2.818657
H         1.366633   -1.281189    3.473134
H         1.653746   -3.097560    3.281188
C         2.651158   -0.507073   -0.267886
O         3.223136   -1.400600   -0.834348
O         2.848494    0.791310   -0.577280
C         3.786925    1.048333   -1.625820
H         3.467848    0.565928   -2.549588
H         3.805505    2.128694   -1.744524
H         4.773836    0.675840   -1.352818
H         1.725335    0.169475    1.512025
H         1.947669   -2.820886    0.881561
