29
0 1
C        -2.591492   -1.919214    0.079274
C        -2.098317   -1.377974    1.418693
C        -1.019053   -0.347243    1.262920
C        -0.709887    0.224116    0.105628
C        -1.434921   -0.085841   -1.179847
C        -2.768273   -0.782855   -0.921541
H        -3.526976   -2.465918    0.215813
H        -1.860534   -2.632813   -0.315596
H        -1.726434   -2.190660    2.049197
H        -2.929041   -0.928310    1.976076
H        -1.600161    0.835798   -1.746055
H        -0.800699   -0.725057   -1.804983
H        -3.178169   -1.153936   -1.863279
H        -3.485201   -0.056400   -0.525479
C         0.425962    1.245363   -0.011514
C         1.125971    1.440235    1.266069
C        -0.133088    2.545045   -0.429063
N         1.693374    1.589035    2.249953
N        -0.576663    3.535299   -0.798013
C         1.475990    0.815969   -1.091721
C         2.038931   -0.494729   -0.814099
C         2.485339   -1.575141   -0.557389
C         3.034496   -2.884372   -0.237849
H         3.446806   -3.360893   -1.129221
H         3.832259   -2.799526    0.502213
H         2.261940   -3.539213    0.169727
H         0.976237    0.824247   -2.061659
H         2.260092    1.574742   -1.129147
H        -0.477036   -0.072548    2.161443
