23
0 2
C         1.041118   -0.578917    0.338243
C        -0.020913   -0.898082   -0.665864
C        -1.282738   -1.579558   -0.279090
H         0.158294   -0.660911   -1.710237
C        -2.539675   -0.692194   -0.344448
H        -1.181133   -1.981221    0.733884
H        -1.454325   -2.441025   -0.934927
C        -2.548488    0.500502    0.605338
H        -3.408077   -1.314766   -0.110973
H        -2.688352   -0.335635   -1.370374
N        -1.690226    1.602775    0.136132
H        -2.187702    0.191241    1.590264
H        -3.582731    0.838962    0.736796
C         1.806022    0.689067   -0.069261
N         1.894487   -1.734924    0.579748
H         0.548285   -0.342652    1.291074
H         2.367584   -1.991585   -0.280170
H        -2.004944    1.916279   -0.777973
H        -1.781534    2.401799    0.756762
O         2.995716    0.716121   -0.228067
O         1.047296    1.772865   -0.223045
H         2.625702   -1.489625    1.239642
H         0.083055    1.577378   -0.075544
