31
0 1
C        -0.862506    2.681434   -0.378439
N         0.013085    1.543042   -0.630881
C         0.688017    1.040691    0.559869
O        -0.779881    0.439102   -1.077464
C        -1.116501   -0.413235    0.036031
C        -2.626662   -0.401106    0.203108
C        -0.376014    0.155733    1.240392
C         1.951677    0.272230    0.227884
H        -1.596819    2.507202    0.415384
H        -0.231116    3.534238   -0.124410
H        -1.393311    2.909785   -1.301058
C         2.291755   -0.052860   -1.079182
C         3.449430   -0.774664   -1.341844
C         4.280483   -1.172862   -0.305084
C         3.948931   -0.844845    1.003328
C         2.790732   -0.128990    1.264813
H         1.644488    0.267514   -1.884228
H         3.703138   -1.024141   -2.365366
H         5.184049   -1.732919   -0.513743
H         4.595098   -1.143670    1.820133
H         2.540038    0.126748    2.289648
O        -3.176551   -1.523068   -0.266487
O        -3.258841    0.505925    0.675908
C        -4.605948   -1.591389   -0.206728
H        -4.870660   -2.560016   -0.621217
H        -4.945811   -1.506465    0.825113
H        -5.045096   -0.786748   -0.795661
H        -0.788333   -1.418779   -0.226265
H         0.060803   -0.623603    1.861187
H        -1.051102    0.758631    1.846838
H         0.944855    1.894444    1.189272
