29
1 1
O        -3.510899    0.016882   -0.000398
C        -2.431747    0.549433    0.000026
O        -2.201197    1.838166    0.000564
C        -3.364956    2.693713    0.000612
C        -1.153822   -0.255532    0.000008
C         1.153822   -0.255532    0.000011
C         1.204275   -1.654281   -0.000069
N         0.000000   -2.260282   -0.000122
C        -1.204275   -1.654281   -0.000080
C         2.408316   -2.525993   -0.000096
C         2.431747    0.549432    0.000169
O         2.201198    1.838166   -0.000858
C         3.364957    2.693713   -0.000739
C        -2.408316   -2.525994   -0.000145
O         3.510899    0.016882    0.001147
H         3.961549    2.503571   -0.891162
H         3.960424    2.504846    0.890708
H         2.973112    3.705278   -0.001709
H         3.030382   -2.312436   -0.869524
H         2.127517   -3.580244   -0.000702
H         3.029760   -2.313267    0.869991
H        -3.029957   -2.312930   -0.870005
H        -3.030185   -2.312775    0.869511
H        -2.127517   -3.580245   -0.000012
H        -3.961208    2.503860    0.891325
H        -3.960765    2.504557   -0.890545
H        -2.973111    3.705278    0.001104
N        -0.000000    0.387884    0.000034
H        -0.000000   -3.277536   -0.000197
