29
0 1
C        -0.059080   -0.786681   -0.461146
H        -0.289087   -0.764742   -1.524358
C         0.249214    0.408549    0.128797
H         0.279746    0.428819    1.216911
C        -0.740278   -1.866798    0.318685
H        -0.525932   -2.860632   -0.082371
H        -0.385591   -1.852930    1.354598
C        -0.113748    1.703500   -0.522496
H        -0.024765    1.604295   -1.608112
H         0.539535    2.525106   -0.218061
C        -1.572024    2.042356   -0.148941
H        -1.609814    2.338371    0.905596
H        -1.874984    2.925339   -0.720037
C        -2.599969    0.920363   -0.382823
H        -3.579292    1.400257   -0.457822
H        -2.423754    0.468408   -1.363702
C        -2.260680   -1.612938    0.294126
H        -2.744175   -2.335887    0.958677
H        -2.640697   -1.826729   -0.711140
C        -2.700825   -0.193748    0.696721
H        -3.746737   -0.261339    1.007341
H        -2.153383    0.112156    1.594189
N         2.469908    0.415314   -0.078722
N         2.576340   -0.783240   -0.431476
N         1.935720   -1.671806   -0.796354
C         3.379435    0.914477    0.941428
H         4.403602    0.984789    0.567755
H         3.041962    1.918583    1.193130
H         3.367326    0.299791    1.847158
