32
0 2
C        -1.085262   -1.529991    0.297203
C        -2.553203   -2.019987    0.426097
O        -3.089216   -1.731484    1.606123
O        -3.125452   -2.618750   -0.439990
C        -0.831611   -1.020025   -1.083902
F         1.352761   -1.166375   -1.045137
S         3.121260   -0.980486   -0.916974
C         2.980852    0.270188    0.367222
H        -0.499202   -2.445396    0.428783
N        -0.782687   -0.632972    1.407184
H        -2.378907   -1.239761    2.086148
C        -0.899417    0.427532   -1.392315
H        -0.948798   -1.744259   -1.879494
F         2.263038    1.336215   -0.008922
F         4.214634    0.684883    0.673185
F         2.412212   -0.190371    1.493989
H         0.173184   -0.739283    1.718737
H        -0.933334    0.356065    1.192723
H        -0.236254    0.966463   -0.715095
C        -2.325636    1.007881   -1.256852
H        -0.532307    0.607169   -2.404771
H        -2.913280    0.697499   -2.122899
H        -2.829921    0.577568   -0.386787
C        -2.333339    2.533790   -1.117706
H        -3.235311    2.946338   -1.577363
C        -2.301494    3.014960    0.329461
H        -1.489593    2.962705   -1.671233
H        -3.197020    2.648134    0.838838
H        -2.351186    4.111368    0.344786
N        -1.141362    2.495812    1.066614
H        -1.192218    2.772143    2.041028
H        -0.279468    2.887761    0.699251
