41
0 1
C         0.499997    0.277035    0.794719
C        -0.071556   -1.073430    0.695327
C        -0.322408    1.411698    0.999300
C        -1.098643   -1.544382    1.588017
C        -1.590332    1.501785    1.581897
C        -2.115957   -0.862539    2.178352
C        -2.392713    0.517886    2.103156
H        -1.077617   -2.616535    1.759118
H        -2.810429   -1.452790    2.768295
H        -3.314643    0.846423    2.571327
H        -1.973232    2.514319    1.663255
C        -1.098554    1.110924   -1.605542
H         0.161105    2.365328    0.830026
C        -0.738086   -1.136101   -1.128444
H         0.697286   -1.817527    0.556559
C        -1.791537   -0.080740   -1.167728
C         0.343977   -0.613503   -1.891603
H        -0.985262   -2.187469   -1.177744
C         0.134730    0.745198   -2.122767
H        -1.521046    2.101849   -1.655702
H         1.227570   -1.172170   -2.163245
H         0.847623    1.419884   -2.574660
C        -3.109884   -0.221709   -0.925194
C        -4.078632    0.913751   -1.059218
C        -3.738773   -1.546349   -0.620380
H        -3.012256   -2.318782   -0.383079
H        -4.324312   -1.880333   -1.484166
H        -4.433078   -1.459211    0.218201
H        -3.592669    1.877093   -1.191449
H        -4.716601    0.969530   -0.173966
H        -4.739371    0.744801   -1.915936
C         1.840102    0.466069    0.441992
C         2.324695    1.799452    0.320082
N         2.655021    2.896877    0.206802
C         2.825309   -0.592410    0.210042
O         2.654574   -1.795112    0.255339
O         4.032120   -0.070368   -0.075316
C         5.083602   -1.006733   -0.301469
H         5.965508   -0.406591   -0.509288
H         5.241022   -1.626828    0.580996
H         4.849694   -1.650705   -1.149584
