10
0 2
H         1.754428   -1.525484    0.231671
N         1.702114   -0.559609   -0.045878
C         0.494796    0.103766   -0.008643
C        -0.696661   -0.701510   -0.017434
O         0.433931    1.332431   -0.005224
N        -1.882236   -0.045639    0.060461
H        -0.695838   -1.780851   -0.059026
H        -1.829735    0.961753   -0.019248
H        -2.743487   -0.500897   -0.185473
H         2.515224    0.009229    0.128252
