19
0 1
C         2.454424    0.762907   -0.000007
C         1.628566    1.806850    0.000022
C         0.161250    1.639067    0.000032
O        -0.562815    2.632330    0.000058
C        -0.381034    0.281308    0.000009
C         0.479689   -0.834175   -0.000021
C         1.956177   -0.633521   -0.000028
O         2.735682   -1.561316   -0.000050
C        -0.028007   -2.115246   -0.000043
C        -1.412185   -2.302299   -0.000036
C        -2.273588   -1.228234   -0.000007
C        -1.770506    0.078170    0.000016
O        -2.642922    1.086311    0.000043
H         0.656700   -2.952456   -0.000066
H        -1.816039   -3.307441   -0.000053
H        -3.347824   -1.360447   -0.000001
H        -2.133772    1.926966    0.000055
H         1.980480    2.831572    0.000038
H         3.532184    0.874243   -0.000015
