19
0 1
C        -0.905783    0.021795   -0.350035
C        -0.179565    1.200812   -0.230010
C         1.192509    1.187540   -0.016615
C         1.863325   -0.023441    0.079759
C         1.158753   -1.214073   -0.039769
C        -0.208962   -1.181660   -0.251636
C        -2.401847    0.040863   -0.532115
C        -3.157566   -0.025708    0.797214
H        -2.701611   -0.800598   -1.162883
H        -2.690501    0.948186   -1.069580
H        -2.905127   -0.937471    1.343159
H        -4.238324   -0.013368    0.638263
H        -2.897779    0.822335    1.434759
O         3.210830   -0.104959    0.285558
H        -0.691569    2.154036   -0.307312
H         1.739406    2.121181    0.069805
H        -0.749147   -2.117686   -0.347315
H         1.696308   -2.151084    0.031007
H         3.586527    0.777374    0.344880
