19
0 2
C         1.667901    0.145961    0.002624
C         0.361218   -0.605069   -0.002014
C        -0.885603    0.265429   -0.049802
H         0.335239   -1.248895    0.885221
H         0.370766   -1.294497   -0.855343
C        -2.148109   -0.520465   -0.072099
H        -0.823420    0.924516   -0.928760
H        -0.881916    0.956126    0.800936
C        -3.462100    0.153613    0.093846
H        -2.123486   -1.547771   -0.421541
N         1.669183    1.412875   -0.038471
C         2.903863   -0.715805    0.059415
H         2.897114   -1.332465    0.961954
H         3.812272   -0.112296    0.055146
H         2.932614   -1.398580   -0.793755
H        -3.715816    0.771898   -0.781037
H        -3.456499    0.832598    0.953710
H        -4.275569   -0.560918    0.230102
H         2.621402    1.778174   -0.029152
