41
0 1
C         2.748727    0.505710    1.014528
C         1.273723    0.878686    0.873513
C         0.375057   -0.242331    0.248976
C         1.113037   -0.765022   -0.974236
C         2.508231   -1.273694   -0.724098
C         3.371897   -0.094125   -0.244713
C        -0.943791    0.499791   -0.062211
C        -0.526818    1.953661   -0.289327
C         0.950584    2.105223    0.027862
O        -1.244316    2.835176   -0.673645
C         0.033483   -1.311287    1.305489
C        -1.073985   -0.658457    2.148849
C        -1.845148    0.273568    1.210694
N        -3.119394   -0.256127    0.667970
O        -3.191015    0.486257   -0.549341
C        -1.950030    0.043652   -1.140339
C        -2.157059   -1.469614   -1.155932
C        -2.991200   -1.630451    0.136349
O         0.665426   -0.668451   -2.093286
C         4.814454   -0.522033   -0.008391
H         0.889031    1.071917    1.878865
H         1.488093    2.096925   -0.926873
H         1.152410    3.060344    0.512191
H         2.856062   -0.221276    1.827667
H         3.312620    1.390368    1.324774
H         0.899169   -1.587780    1.909636
H        -0.324490   -2.224858    0.828391
H         2.894849   -1.701632   -1.649052
H         2.500631   -2.048737    0.049727
H         3.366489    0.660817   -1.039183
H         4.869257   -1.288530    0.770198
H         5.426815    0.324179    0.311332
H         5.258671   -0.933985   -0.916863
H        -1.727366   -1.386401    2.630262
H        -0.633401   -0.068701    2.953424
H        -1.233290   -2.039367   -1.163411
H        -2.729555   -1.751896   -2.038767
H        -2.549317   -2.291928    0.878562
H        -3.998133   -1.986561   -0.072457
H        -1.826456    0.520099   -2.105488
H        -2.104061    1.216370    1.689366
