28
-1 1
C         4.162504   -0.774386    1.046443
C         4.764352   -0.449931   -0.161829
C         4.003066    0.127119   -1.172274
C         2.656275    0.385997   -0.972056
C         2.045235    0.078082    0.242762
C         2.811556   -0.519851    1.239764
H         2.337392   -0.784411    2.178385
H         4.744852   -1.233252    1.837873
H         5.817541   -0.653862   -0.319837
H         4.462129    0.368527   -2.124676
H         2.051438    0.815412   -1.760568
C         0.609933    0.363545    0.461261
C         0.065363    1.583699    0.065490
C        -1.349529    1.720529    0.082363
C        -2.113616    0.422294    0.140489
C        -1.529086   -0.813508   -0.281200
C        -2.407337   -1.901664   -0.496548
C        -3.755587   -1.813335   -0.216742
C        -4.310343   -0.622352    0.253609
C        -3.480781    0.476440    0.398544
H        -3.879527    1.442911    0.686801
H        -4.386476   -2.685656   -0.362467
H        -5.369694   -0.551802    0.472686
H        -1.969709   -2.825768   -0.856786
O        -0.246698   -0.997378   -0.474048
O        -1.968485    2.783330   -0.085069
H         0.219191   -0.098099    1.365291
H         0.662299    2.342318   -0.424215
