19
0 1
C        -2.183175    0.812360    0.706271
S        -1.870532   -0.562660   -0.436564
C        -0.322553   -1.246710    0.236400
C         0.962646   -0.671086   -0.364408
C         2.184495   -1.425042    0.158479
C         1.088224    0.803485   -0.006490
O         1.299116    1.170446    1.132832
H        -2.258556    0.447569    1.730117
H        -1.413781    1.578806    0.647478
H        -3.140528    1.243333    0.415257
H         2.102608   -2.489773   -0.069253
H         2.268661   -1.300652    1.238622
H         3.103047   -1.048997   -0.295939
H        -0.321515   -1.113147    1.319769
H        -0.359481   -2.318272    0.035460
H         0.907489   -0.776877   -1.451367
N         0.958263    1.677291   -1.038981
H         0.959586    2.662756   -0.826635
H         0.602389    1.375172   -1.929794
