57
1 1
C         1.261461   -0.770297   -0.448912
C         2.149841    1.737848   -0.447677
C         3.538295    1.151252   -0.729140
C         3.729107   -0.229406   -0.129815
C         2.705206   -1.176321   -0.744594
H         3.686701    1.096786   -1.812773
H         4.278573    1.849753   -0.334265
H         3.584026   -0.198830    0.951437
H         2.859516   -1.207201   -1.827382
H         2.859839   -2.183402   -0.357628
N         1.116322    0.692301   -0.701448
O        -0.087306    1.117631   -0.810194
C         0.308956   -1.509201   -1.387647
H         0.483939   -2.580782   -1.287515
H        -0.735349   -1.311218   -1.148727
H         0.489231   -1.227659   -2.425650
C         0.885623   -1.082082    1.010045
H        -0.142774   -0.787674    1.222247
H         0.948065   -2.160970    1.154434
H         1.553009   -0.617210    1.732684
C         1.884753    2.904225   -1.398954
H         0.950547    3.412550   -1.165793
H         2.695966    3.626725   -1.302762
H         1.849393    2.562390   -2.433945
C         2.035955    2.226740    1.006144
H         2.747862    3.040068    1.152130
H         1.044002    2.631222    1.210831
H         2.264916    1.449796    1.733290
C        -1.580635    1.668604    1.162475
H        -1.009863    1.334613    2.029215
H        -0.642157    1.270863    0.184359
C        -2.670003    0.781558    0.735980
C        -3.312021    0.883391   -0.505335
C        -2.987685   -0.278759    1.594229
C        -4.276711   -0.038034   -0.864937
H        -3.041983    1.656523   -1.209624
C        -3.960426   -1.197034    1.245357
H        -2.486184   -0.372082    2.549779
C        -4.585177   -1.056154    0.020065
H        -4.785401    0.013625   -1.817279
H        -4.237061   -2.012345    1.899035
O        -1.579930    2.990785    1.119606
C        -2.479409    3.754880    0.300876
H        -2.178389    3.691245   -0.745110
H        -3.503843    3.409467    0.433755
H        -2.377180    4.777438    0.650810
N        -5.618068   -2.046545   -0.369718
O        -6.158270   -1.884386   -1.441961
O        -5.841704   -2.944162    0.412091
N         5.082225   -0.701952   -0.330542
C         5.578093   -1.697014    0.465433
O         4.898284   -2.179919    1.351516
C         6.988119   -2.141703    0.185288
H         6.980071   -3.208111   -0.041596
H         7.581053   -2.004832    1.089943
H         7.458802   -1.602250   -0.636812
H         5.632689   -0.349663   -1.096881
