13
-1 1
C        -0.758600   -0.984018    0.572363
C         0.616701   -1.104617   -0.035314
C         1.486661   -0.066252    0.021860
C        -1.684586    0.050256   -0.057746
O         2.778625   -0.257527   -0.454875
H         3.163135    0.623267   -0.391745
O         1.250821    1.113339    0.465857
O        -2.812037   -0.211283   -0.426648
O        -1.199053    1.278135   -0.139282
H        -0.214020    1.302915    0.155256
H        -0.690772   -0.706218    1.636398
H        -1.284742   -1.937036    0.523948
H         0.918503   -2.036451   -0.491249
