15
-1 1
O        -0.892797    1.817263   -0.414849
C        -0.576459    0.771431    0.204751
C        -1.450041   -0.405767    0.185787
O        -2.606514   -0.155101   -0.518302
O        -1.136136   -1.594106    0.452898
C         0.792194    0.626550    0.861828
H        -1.518959    0.427888    1.360549
C         1.814579   -0.065111   -0.029994
H         0.705268    0.035386    1.775649
H         1.171361    1.617270    1.101176
O         2.908924    0.422722   -0.279876
N         1.416790   -1.272908   -0.482541
H        -2.486243    0.765958   -0.821885
H         0.493460   -1.647717   -0.208505
H         2.048131   -1.777269   -1.082397
