28
0 1
C         0.698976    1.272079   -0.733774
C        -0.053456    0.271668    0.116594
C         0.556141   -0.880199    0.573567
C         2.064517   -1.001649    0.436012
C         2.681410    0.056458    1.346620
C         2.764071    1.206181    0.686280
C         2.222129    1.032668   -0.720577
H         0.331582    1.216566   -1.765624
H         0.465696    2.282594   -0.386443
H         2.701212    1.676136   -1.459089
C         2.475331   -0.464698   -0.942833
H         3.080308    2.155780    1.098728
H         2.910572   -0.107122    2.391421
C        -1.465416    0.396444    0.233107
H         0.074126   -1.444451    1.363195
H         3.534278   -0.653027   -1.124180
H         1.890007   -0.884815   -1.762052
H         2.397830   -2.018683    0.643633
C        -2.257502   -0.872863   -1.260428
C        -2.108496   -0.257110    1.344896
C        -2.076840    1.641189   -0.153688
N        -2.611434   -0.804915    2.219391
N        -2.558876    2.621543   -0.506752
H        -3.227217   -1.060116   -0.811731
H        -2.274766   -0.196653   -2.109850
C        -1.314449   -1.862787   -1.246584
C        -0.227229   -2.311029   -0.875916
H         0.553432   -3.040718   -0.886134
