38
0 1
C         0.084594   -0.970723   -0.893587
C         2.303971   -0.720893    0.029777
C        -0.441546   -0.028215   -0.002747
H        -0.179796   -0.175677    1.035946
C         2.204227    0.684789    0.228658
C         1.369259   -1.448344   -0.699881
C         3.622070    1.198035    0.324280
H         1.730727   -2.312127   -1.250556
H        -0.459692   -1.244203   -1.789423
C        -1.697154    0.722911   -0.234978
H        -1.704555    1.565148    0.466857
C        -1.850546    1.254131   -1.662677
H        -0.980436    1.849935   -1.949491
H        -1.944479    0.447757   -2.392098
H        -2.736521    1.884802   -1.755619
N         1.127607    1.387507    0.236734
C         1.185890    2.825834    0.075623
H         1.675835    3.131478   -0.856060
H         0.171785    3.226554    0.072995
H         1.719496    3.290770    0.911979
O         4.451628    0.045925    0.371258
H         3.783986    1.790269    1.227784
H         3.887322    1.804452   -0.546919
C         3.714408   -1.091687    0.119139
O         4.240958   -2.159752   -0.001448
Si       -3.203533   -0.329253    0.321684
C        -2.877020   -0.983927    2.047759
C        -4.701646    0.801371    0.335248
C        -3.482803   -1.748663   -0.869021
H        -3.755340   -1.506404    2.435174
H        -2.043638   -1.690056    2.057574
H        -2.640903   -0.176532    2.745822
H        -4.549656    1.658160    0.996555
H        -4.930959    1.183965   -0.661824
H        -5.584623    0.263699    0.690350
H        -3.670454   -1.395954   -1.885835
H        -2.622636   -2.420514   -0.896607
H        -4.352165   -2.335629   -0.561353
