22
1 1
C        -1.780387   -0.275492   -1.066661
C        -1.178243   -1.101009    0.077499
C        -0.544056    0.954612    0.601039
C        -1.319489    1.167538   -0.709530
H        -1.410700   -0.611636   -2.033278
H        -2.866230   -0.362671   -1.068305
H        -0.701221    1.627549   -1.479718
H        -2.160142    1.833964   -0.518048
C        -1.324936   -0.166136    1.284766
H        -0.858777   -0.538052    2.197707
H        -2.355491    0.120624    1.486514
H        -1.535675   -2.122066    0.172402
H        -0.267800    1.838490    1.168485
N         0.688179    0.188345    0.221225
N         0.294335   -1.107143   -0.139671
C         1.885021    0.626105    0.132453
H         0.784043   -1.789188    0.433708
C         3.016681   -0.201956   -0.329963
H         2.683539   -0.943331   -1.057955
H         3.792672    0.428564   -0.761103
H         3.465041   -0.731683    0.518591
H         2.025603    1.659048    0.432511
