16
0 1
C        -0.323223    1.302025   -0.000458
C         0.807391    0.482830   -0.003126
C         0.529156   -0.884221   -0.000140
N        -0.668802   -1.458721    0.001520
C        -1.657274   -0.568761   -0.005247
N        -1.532046    0.775135   -0.000965
N         2.172353    0.709283   -0.001710
C         2.696532   -0.474878    0.001600
N         1.755418   -1.488198    0.003417
N        -2.931504   -1.045801   -0.043046
O        -0.212729    2.628443    0.004550
H         3.754651   -0.689575    0.002799
H         1.922629   -2.481303    0.002419
H        -3.679499   -0.402611    0.148221
H        -3.068887   -2.024759    0.139200
H        -1.110480    2.986860    0.000685
