40
1 1
C         3.468145   -0.467706    0.035585
C         2.383519   -1.254598   -0.684227
C         1.000953   -1.067317   -0.043696
H         2.336886   -0.938358   -1.732173
H         2.623969   -2.318901   -0.691316
C         0.953050   -1.767140    1.326289
H         1.112628   -2.837191    1.184258
H        -0.002894   -1.640977    1.830910
H         1.732395   -1.403284    1.998048
C         0.686974    0.427678    0.094676
C         1.709378    1.394521    0.115773
C         3.157798    1.022566    0.003356
H         4.438622   -0.638343   -0.430964
H         3.567436   -0.806622    1.068728
C         1.409081    2.864075    0.094127
C        -0.083710   -1.645099   -0.971939
C        -1.504788   -1.544408   -0.412047
H         0.168262   -2.688385   -1.173049
H        -0.022104   -1.131639   -1.936696
C        -0.755720    0.852626   -0.045523
H         1.167702    0.829453    1.223843
C        -1.769323   -0.224695    0.350622
H        -0.871911    1.108956   -1.105819
H        -0.959114    1.770758    0.504597
H        -1.712554   -2.378942    0.258640
H        -2.208772   -1.647150   -1.238378
C        -3.191140    0.266492    0.172081
H        -1.639700   -0.407321    1.419411
C        -4.050456    0.203204    1.181868
H        -3.759299   -0.176094    2.154894
H        -5.080264    0.520240    1.070552
C        -3.582432    0.802299   -1.177804
H        -3.310078    0.118312   -1.986182
H        -3.094359    1.758991   -1.388055
H        -4.657180    0.968610   -1.232249
H         3.450248    1.454681   -0.963601
H         3.731050    1.581785    0.746534
H         0.555272    3.141513    0.708476
H         1.169948    3.144398   -0.936443
H         2.275840    3.440519    0.411186
