25
0 1
C        -1.985711   -1.472152    0.174262
C        -1.786170   -0.099207    0.017253
C        -0.510366    0.448635   -0.000653
C         0.609319   -0.365234    0.136201
C         0.428701   -1.735941    0.303532
C        -0.852880   -2.263964    0.316000
H        -0.378601    1.516222   -0.128711
H        -0.977912   -3.332909    0.445354
N         1.861172    0.278850    0.155281
C         2.987378   -0.202150   -0.285063
O         4.070824    0.482318   -0.230935
N        -2.914748    0.716426   -0.123575
C        -3.224165    1.861906   -0.276147
O        -3.633310    2.943243   -0.423580
H         3.753972    1.523094    0.244548
O         3.075166   -1.418456   -0.821483
H         3.988747   -1.537891   -1.112046
O         2.965912    2.366509    0.689039
H         2.179707    1.506541    0.571208
H         3.118613    2.625692    1.601669
C        -3.369700   -2.051271    0.189914
H        -3.968396   -1.621311    0.996032
H        -3.895981   -1.840020   -0.743695
H        -3.334421   -3.132036    0.326919
H         1.282120   -2.386951    0.420660
