22
0 1
C        -1.374708    0.583860   -0.160744
C         0.102894    0.253520   -0.085056
C         0.986845    0.724621   -1.047611
C         0.598510   -0.499150    0.976144
C         2.347280    0.459865   -0.951009
H         0.607937    1.302011   -1.884553
C         1.954576   -0.771149    1.072253
H        -0.091941   -0.881723    1.718664
C         2.834054   -0.289323    0.109961
H         3.025351    0.833303   -1.709150
H         2.328641   -1.361626    1.900294
H         3.893600   -0.502024    0.185610
O        -2.188101   -0.528224    0.170063
C        -2.144661   -1.568649   -0.780208
H        -1.140340   -1.996800   -0.868943
H        -2.833776   -2.340461   -0.440766
H        -2.464105   -1.212431   -1.768055
C        -1.751885    1.700624    0.796853
H        -1.549306    1.394030    1.824573
H        -1.170266    2.598943    0.584013
H        -2.814119    1.930989    0.704472
H        -1.604302    0.896259   -1.190151
