32
0 1
C        -0.630859    0.256575    0.777918
C        -0.027246    1.528344    0.380281
C        -2.284288    0.204785   -0.958603
O        -2.350672   -1.101510   -0.608326
C        -1.459839    0.346680   -2.076804
C        -0.768909   -0.832338   -2.203498
C        -1.158477   -1.623292   -1.079875
C        -0.111143   -1.001036    0.372243
C         1.332021   -1.166004   -0.015258
O         2.140461   -0.741735    0.966109
O         1.741328   -1.695052   -1.014508
O        -0.324588    2.600323    0.864681
O         0.900196    1.396117   -0.584937
C         1.488858    2.606353   -1.054960
C         3.541488   -0.867161    0.711529
H        -3.043390    0.850889   -0.548674
H        -1.330579    1.253651   -2.646171
H         0.047227   -1.062959   -2.865292
H        -1.098859   -2.701524   -1.037136
H         2.204662    2.307948   -1.816853
H         1.988800    3.130659   -0.240695
H         0.728252    3.261452   -1.481464
H         4.036524   -0.477126    1.596871
H         3.816348   -0.286283   -0.169120
H         3.810318   -1.910514    0.548053
H        -0.356218   -1.794250    1.074264
N        -1.520975    0.371429    1.847075
H        -1.547551    1.317841    2.199056
C        -1.648072   -0.672097    2.837650
H        -2.273839   -0.302632    3.649506
H        -2.147062   -1.550182    2.420548
H        -0.682819   -0.986967    3.259691
