46
1 1
C        -0.864787   -1.593375   -0.791594
C        -1.700986   -0.618360   -0.241376
C        -2.984266   -0.980127    0.155651
C        -3.424948   -2.289444    0.012996
C        -2.558263   -3.240349   -0.541251
C        -1.279910   -2.906120   -0.952449
H        -3.648982   -0.235785    0.577976
H        -2.901251   -4.261492   -0.660106
H        -0.632855   -3.652448   -1.396668
C        -1.056218    0.692352   -0.168020
C        -1.579946    1.890731    0.313195
C         0.243945    0.648671   -0.657811
C        -0.767357    3.018428    0.296055
H        -2.592902    1.932504    0.683395
C         1.070127    1.773366   -0.650406
C         0.554878    2.962108   -0.177207
H         1.134721    3.872848   -0.152409
S         0.715584   -0.939873   -1.242796
O         2.331575    1.582773   -1.099474
O        -1.151692    4.232611    0.725582
C        -4.813587   -2.688752    0.425662
H        -5.324394   -1.878090    0.944569
H        -5.413046   -2.958985   -0.446771
H        -4.792438   -3.556168    1.088022
C         3.168691    2.724700   -1.260829
H         3.374154    3.196951   -0.297507
H         2.708593    3.446113   -1.938754
H         4.094711    2.357167   -1.694447
C        -2.475227    4.404787    1.210686
H        -2.653391    3.784060    2.092638
H        -2.556403    5.453106    1.483883
H        -3.209356    4.172611    0.435087
C         2.199466   -1.552155    0.523830
H         2.378616   -2.479414    0.007056
H         2.782117   -0.697069    0.219320
C         1.245407   -1.467176    1.670321
H         1.780881   -1.510838    2.618775
H         0.708066   -0.518211    1.656881
H         0.524208   -2.282649    1.652091
N         4.037934   -2.120720    1.614405
H         4.258255   -1.380741    2.274408
H         3.852063   -2.958966    2.157208
C         5.142348   -2.333726    0.671287
H         6.078814   -2.600419    1.165592
H         5.302347   -1.423541    0.092622
H         4.877324   -3.133956   -0.020264
