25
0 1
C         2.297962   -0.821276    0.482272
C         1.069199   -0.920454   -0.419383
C         0.050519   -1.972612   -0.135897
C        -1.245476   -1.693198   -0.137762
C        -1.824090   -0.316386   -0.346569
C        -0.772067    0.774125   -0.238134
C        -1.254459    2.189902   -0.089584
H        -0.437431    2.905774   -0.173834
H        -1.746739    2.352592    0.872831
C         0.519090    0.470457   -0.276060
C        -2.988674   -0.098281    0.630480
H        -3.712070   -0.911426    0.542617
H        -3.517149    0.834995    0.434323
H        -1.965026   -2.489979    0.027212
C         1.706959    1.365000   -0.017988
H         1.545293    2.009522    0.853033
H         1.971971    1.997897   -0.869805
H         3.088449   -1.535269    0.251243
H         2.010924   -0.928621    1.537026
H         0.390619   -2.991294    0.023087
H        -2.628196   -0.079215    1.662085
H        -1.986482    2.432429   -0.866291
O         2.805201    0.483479    0.225758
H         1.440267   -1.048936   -1.446834
H        -2.249813   -0.279966   -1.361004
