10
0 1
S         0.000000    0.227448   -0.443016
C         1.354260   -0.801428    0.184664
H         1.257899   -0.891884    1.266726
H         1.331934   -1.778302   -0.299472
H         2.281547   -0.286871   -0.060773
C        -1.354260   -0.801429    0.184664
O         0.000000    1.486512    0.382416
H        -1.331933   -1.778304   -0.299471
H        -2.281547   -0.286872   -0.060774
H        -1.257899   -0.891883    1.266726
