45
0 1
C        -4.400293   -2.615428   -0.047319
C        -3.350074   -1.870261    0.466791
C        -3.399088   -0.479336    0.445129
C        -4.516132    0.150996   -0.091417
C        -5.567582   -0.593944   -0.607373
C        -5.510778   -1.979886   -0.587422
H        -4.353449   -3.697356   -0.022093
H        -2.492793   -2.374123    0.896919
H        -4.565580    1.234406   -0.103893
H        -6.433566   -0.090451   -1.019784
H        -6.331133   -2.563954   -0.986283
C        -2.236956    0.345591    0.935569
C        -1.038469    0.347964   -0.047809
C        -1.025559    2.338496   -1.431270
C        -0.056972    2.438301    0.791214
C        -0.104474    3.445859   -1.926374
H        -1.983490    2.780908   -1.102693
H        -1.253599    1.642968   -2.242001
C         0.906606    3.538459    0.367066
H        -0.961391    2.900465    1.223294
H         0.393077    1.824233    1.571074
C         0.318193    4.358543   -0.777801
H        -0.610606    4.017255   -2.708563
H         0.780490    2.986381   -2.376710
H         1.129383    4.175670    1.226173
H         1.846911    3.078057    0.048747
H         1.036706    5.103994   -1.126261
H        -0.556369    4.910253   -0.413136
N        -0.390123    1.594487   -0.351624
N        -0.149614   -0.542403    0.704740
N        -0.561372   -0.687193    2.007479
N        -1.685763   -0.213173    2.193479
C         1.183622   -0.773412    0.368152
C         1.486349   -1.331659   -0.869619
C         2.252501   -0.439688    1.194905
C         2.787874   -1.552792   -1.273557
C         3.560151   -0.685165    0.815342
C         3.832070   -1.237412   -0.422590
F         0.494844   -1.661929   -1.699747
F         3.039291   -2.084540   -2.466425
F         5.087764   -1.460055   -0.794688
F         4.561168   -0.359256    1.628025
F         2.043142    0.158702    2.365359
H        -2.579138    1.358970    1.145516
H        -1.319175   -0.117357   -0.991246
