26
0 1
C         1.933966    1.073786   -0.414493
C        -1.486110    0.275761    0.620009
C        -1.395805   -1.065394    0.694680
C         3.735779   -2.083160    0.178958
C         3.442086   -0.785253    0.172569
C         2.235321   -0.223588   -0.417937
C         0.689394    1.665614   -0.997578
C        -0.194363    2.350222    0.053172
C        -0.679959    1.399023    1.155091
H         0.958240    2.407136   -1.757162
H        -1.056563    2.803115   -0.444503
H         0.169179    1.003360    1.716173
C        -2.742168    0.296780   -0.250187
H        -3.640628    0.715929    0.209101
H        -2.627635    0.696314   -1.260739
C        -2.605621   -1.247942   -0.140353
O        -3.237021   -2.166445   -0.575027
H         0.121485    0.883939   -1.510325
H         0.359921    3.168882    0.520862
H        -1.301292    1.964532    1.858542
H        -0.701003   -1.740290    1.176906
H         1.547734   -0.926891   -0.883125
H         2.624704    1.770348    0.059609
H         4.128852   -0.078886    0.632603
H         3.073269   -2.813471   -0.273375
H         4.644779   -2.457544    0.632049
