26
0 1
O         1.956427    0.594696   -1.197937
C         1.995461   -0.147897   -0.247219
C         0.846861   -0.483122    0.646748
C        -0.480392    0.196441    0.270078
C        -0.973892   -0.274859   -1.073985
C        -2.101996   -0.946984   -1.246244
C        -1.478722   -0.093026    1.370908
C        -2.612083   -0.751096    1.183485
C        -3.069581   -1.263333   -0.148008
H        -1.204377    0.264600    2.358458
H        -3.282353   -0.931279    2.017029
H        -3.217439   -2.345794   -0.087391
O        -4.369924   -0.761217   -0.461676
H        -4.302784    0.194088   -0.563136
C         3.347486   -0.814011    0.088765
O         4.323244   -0.425444   -0.721441
O         3.478023   -1.597624    0.980716
C        -0.261531    1.711617    0.304358
O         0.526851    2.258805    1.026408
O        -1.092920    2.377679   -0.505412
H         3.943885    0.210080   -1.353938
H        -0.912742    3.321854   -0.390769
H         1.146631   -0.208682    1.661958
H         0.724533   -1.569226    0.660302
H        -2.396685   -1.269921   -2.238987
H        -0.341936   -0.043258   -1.922102
