11
1 1
C         1.173098   -0.640907    0.000038
H        -2.079210   -1.231129    0.000036
H        -2.065072    1.311037   -0.000071
C         1.142423    0.743089   -0.000022
C        -1.173103   -0.640898    0.000016
N         0.000005    1.418718   -0.000060
C        -1.142423    0.743090   -0.000045
N        -0.000001   -1.287381    0.000055
H         2.065080    1.311025   -0.000033
H         2.079206   -1.231135    0.000074
H        -0.000005   -2.305394    0.000102
