24
0 1
N        -1.826135    1.411824    1.129052
C        -2.134059    0.766058   -0.147198
C        -2.481412   -0.711885    0.100391
O        -2.594362   -1.512084   -0.786871
O        -2.677856   -1.012776    1.379510
C        -1.054181    0.906720   -1.233370
H        -1.365879    0.307055   -2.089142
H        -1.025758    1.950457   -1.554742
C         0.314368    0.486204   -0.761522
C         1.247481    1.431400   -0.337644
H         1.001377    2.486636   -0.396788
C         2.493965    1.059571    0.141043
H         3.217616    1.797214    0.463301
C         2.829205   -0.285638    0.201062
C         1.917977   -1.244867   -0.224335
H         2.179706   -2.297422   -0.186954
C         0.674832   -0.858870   -0.700280
H        -0.026955   -1.615538   -1.029648
O         4.064196   -0.606860    0.678420
H        -3.061477    1.202169   -0.529574
H        -2.497883   -0.180605    1.870397
H        -2.179999    2.357321    1.181434
H        -0.825713    1.432138    1.301372
H         4.183026   -1.560594    0.669618
