19
0 1
O        -1.090036   -1.437689   -0.322189
C        -1.466821   -0.362496   -0.891834
C        -2.101662    0.668644   -0.242713
C         0.034467    1.224755    0.827329
C         0.098137    0.009387    1.483009
C         0.605664   -1.077460    0.794713
H        -2.536554    0.510034    0.734386
H        -2.401927    1.552609   -0.792690
H        -0.482911   -0.151355    2.381824
H         0.560737   -2.060566    1.242972
C         0.902848    1.479938   -0.315117
C         1.647310    0.504973   -0.838225
C         1.598775   -0.890533   -0.307401
H         0.931837    2.481472   -0.727070
H         2.319002    0.707327   -1.664841
H         1.385068   -1.602838   -1.109855
H         2.594407   -1.169764    0.069255
H        -1.126659   -0.181839   -1.922375
H        -0.435016    2.073187    1.307332
