22
0 1
C         0.517417   -1.137942    0.020451
C         0.422160   -0.644457    1.440712
C         0.877001    1.211003    0.106076
C         0.618282    0.669283    1.486490
S         1.943324   -0.130401   -0.657067
C        -2.525035    0.579103    0.369694
C        -0.624640   -0.501441   -0.813979
C        -0.375673    1.031207   -0.783796
C        -1.675951    1.689361   -0.257156
H        -2.402094    0.534857    1.455096
H        -2.211419    2.141300   -1.093606
H        -1.458912    2.492163    0.448401
H        -3.593335    0.661784    0.169147
O         3.183509   -0.354850    0.140365
C        -1.991431   -0.730285   -0.176810
O        -2.540488   -1.796715   -0.112860
H         0.579563    1.288519    2.371819
H         0.187099   -1.288856    2.276106
H         0.647056   -2.205988   -0.124397
H        -0.635920   -0.917131   -1.822412
H         1.345293    2.189952    0.043675
H        -0.147464    1.407346   -1.780890
