25
1 1
N        -1.244328   -0.000007   -0.000016
C        -0.792083   -1.389852   -0.322454
C         0.736225   -1.342192   -0.510587
C         1.290792    0.000000    0.000019
C        -0.792118    0.415690    1.364867
C         0.736177    0.228912    1.417671
C         2.811507    0.000016    0.000012
H         3.202317   -0.220144   -0.995301
C        -0.792124    0.974237   -1.042385
C         0.736215    1.113232   -0.907105
H        -1.335817   -1.688681   -1.216254
H        -1.109523   -2.012112    0.512314
H         0.989623   -1.470848   -1.563793
H         1.187477   -2.171000    0.034890
H        -1.335864   -0.208945    2.070553
H        -1.109525    1.449759    1.486349
H         0.989577   -0.618849    2.055712
H         1.187435    1.115714    1.862698
H         3.202340   -0.751863    0.688323
H         3.202333    0.972058    0.306992
H        -1.335804    1.897706   -0.854126
H        -1.109643    0.562552   -1.998685
H         0.989676    2.089688   -0.492016
H         1.187421    1.055149   -1.897628
F        -2.633252   -0.000044   -0.000015
