7
0 1
C        -0.000002    0.530601   -0.000010
O        -1.161577   -0.247387    0.095194
O         1.161563   -0.247401   -0.095195
H         1.246720   -0.770069    0.708473
H        -0.001612    1.157495   -0.894718
H         0.001610    1.157513    0.894685
H        -1.246600   -0.770237   -0.708370
