41
0 1
C        -0.649929   -0.305438    0.569209
C         0.285011    0.682477    1.242351
C        -0.146668   -1.567977    0.041945
C         1.163610    0.052446    2.295102
C         1.106871   -2.036099    0.076080
C         2.098532   -0.841866    2.028068
C         2.342992   -1.406047    0.650422
H         1.026658    0.403742    3.311918
H         2.724990   -1.214012    2.831489
C         1.610996    1.027639   -2.017608
C         1.127025    1.477849    0.202415
H        -0.328163    1.426799    1.744457
C         1.947893    0.655097   -0.772467
C         0.291201    2.346091   -0.696732
C         0.588737    2.076548   -1.971298
H        -0.430927    3.060796   -0.328576
H         0.158120    2.551088   -2.842734
C         2.969916   -0.373947   -0.363346
C         3.468676   -1.153279   -1.584274
C         4.176545    0.308434    0.299788
H         3.884089    0.901418    1.165736
H         4.670132    0.969168   -0.415153
H         4.903378   -0.438771    0.631261
H         2.651132   -1.648983   -2.109927
H         4.191579   -1.912744   -1.277448
H         3.969054   -0.487371   -2.289266
C        -1.967163    0.031866    0.446792
C        -2.426798    1.285656    0.965552
N        -2.768462    2.297474    1.390904
C        -3.021616   -0.788469   -0.214975
O        -2.897988   -1.887642   -0.694244
O        -4.186167   -0.130659   -0.216001
C        -5.290316   -0.807482   -0.821435
H        -5.078025   -1.015530   -1.869798
H        -5.489774   -1.745208   -0.303440
H        -6.132572   -0.128140   -0.726342
H         1.797668    2.118270    0.788311
H         2.020876    0.627131   -2.933929
H        -0.888531   -2.189778   -0.433402
H         1.258153   -2.999525   -0.400781
H         3.091550   -2.195251    0.749721
