28
0 2
C         1.886660   -1.009108    1.509835
H         2.921868   -1.004646    1.863424
H         1.262258   -0.606065    2.310344
H         1.595697   -2.049343    1.348196
C         2.752021   -0.741156   -1.447127
H         2.462796   -1.776159   -1.640956
H         2.622702   -0.179511   -2.374558
H         3.815737   -0.730637   -1.192285
C         2.178009    1.792187    0.238849
H         2.034826    2.389220   -0.664200
H         1.560904    2.228043    1.027441
H         3.224910    1.885355    0.541726
Si        1.726130   -0.001097   -0.065604
H         0.225352   -0.030501   -0.541270
C        -3.392459    0.183883   -0.774890
C        -2.043300   -0.009384   -0.066927
H        -3.432296    1.162450   -1.254635
H        -3.533618   -0.583773   -1.536557
H        -4.204707    0.112874   -0.047918
C        -1.984369   -1.390845    0.585263
C        -1.832630    1.097277    0.967276
H        -1.019970   -1.541378    1.074379
H        -2.768309   -1.505499    1.338006
H        -2.108993   -2.166982   -0.171509
H        -2.627125    1.090752    1.717387
H        -0.880246    0.961998    1.484743
H        -1.820379    2.071666    0.476458
O        -1.110103    0.093796   -1.114179
