37
0 1
C        -1.971191   -0.346818   -1.232411
C        -0.756032    0.365443    0.971413
C        -2.225515    1.143353   -1.552998
H        -1.462002    1.458891   -2.270632
H        -3.192321    1.250254   -2.059619
H         0.151515    0.356398    1.582578
H        -1.917903   -0.869154   -2.194055
H         0.299287    0.116284   -1.175297
C        -1.033066    1.847067    0.636262
H        -0.111034    2.251862    0.209314
H        -1.224041    2.412399    1.556396
B        -0.552694   -0.335809   -0.450920
C         0.876554   -1.648108   -0.258831
C         2.147706   -1.406424   -0.067318
H         2.788875   -2.268241    0.081883
C        -0.291711   -2.273059   -0.341913
H        -0.652604   -2.654366   -1.288324
H        -0.812255   -2.576141    0.556651
C         2.827164   -0.091441   -0.037220
O         2.323773    0.996853   -0.047959
O         4.156737   -0.292295    0.018535
C         4.956766    0.892561    0.063327
H         4.704737    1.487187    0.941190
H         5.986185    0.548810    0.114537
H         4.795703    1.493111   -0.831691
C        -1.870802   -0.314617    1.784837
H        -1.507570   -1.294801    2.120389
H        -2.057597    0.246992    2.707720
C        -3.095127   -0.991632   -0.404954
H        -2.947784   -2.077854   -0.403238
H        -4.058861   -0.832005   -0.902610
C        -2.191158    2.093335   -0.344697
H        -3.141700    2.038914    0.186776
H        -2.126411    3.121841   -0.713159
C        -3.208346   -0.502324    1.049526
H        -3.826958   -1.209187    1.611701
H        -3.759337    0.437374    1.069343
