40
0 1
C         2.014930   -0.342297   -1.474132
C         0.986214    0.277831    0.991452
H         0.519976    0.404455    1.959999
C         0.627630    1.083703   -0.085926
C         1.149592    0.749371   -1.336771
C         2.934539   -0.609964   -0.338486
C         2.260970   -0.424486    1.033393
O         2.772983   -0.855782    2.041869
O         4.076788   -0.959931   -0.462961
H         0.803554    1.253566   -2.227707
C        -0.314974    2.274703    0.109015
C        -1.446637    1.955750    1.093941
H        -2.086794    2.833963    1.202827
H        -2.063454    1.130197    0.742143
H        -1.073477    1.706687    2.087618
C        -0.943319    2.741364   -1.208148
H        -1.621748    3.573489   -1.010334
H        -0.194355    3.099033   -1.917093
H        -1.520678    1.944829   -1.680785
C         0.535252    3.423746    0.682025
H        -0.084183    4.311329    0.834154
H         0.974780    3.145045    1.641736
H         1.349178    3.686968    0.002900
C        -3.951660   -0.866852   -0.068491
C        -3.150025   -0.670873   -1.182864
C        -3.393776   -1.386312    1.096173
H        -3.577374   -0.267909   -2.093290
C        -1.801362   -0.995782   -1.142288
H        -4.013314   -1.543131    1.970784
C        -2.048484   -1.699124    1.141845
C        -1.227282   -1.514639    0.022162
H        -1.195777   -0.847215   -2.026318
C         0.183730   -1.872005    0.096755
H        -1.614466   -2.093785    2.053697
C         0.974028   -2.045501   -1.043227
H        -5.005516   -0.620048   -0.104540
H         2.435435   -0.560434   -2.449985
H         0.518146   -2.309175    1.028703
H         0.485047   -2.090905   -2.007108
H         1.830661   -2.703056   -0.957229
