17
0 1
O         2.152303   -1.826438   -0.141550
C         1.387976   -0.786114    0.386849
C        -0.068232   -0.960360    0.136554
C        -0.872530    0.108076    0.083036
C        -0.321129    1.461140    0.128216
C         0.998088    1.699630    0.103227
C         1.933238    0.580193   -0.004544
H        -0.449025   -1.971310    0.068927
H        -1.034237    2.276559    0.129588
H         1.403255    2.701470    0.043150
C        -2.342882   -0.012670   -0.059010
O        -3.093269    0.925978   -0.119913
O        -2.769946   -1.286016   -0.112524
H        -3.731534   -1.263080   -0.211793
O         3.091088    0.677054   -0.349500
H         3.007457   -1.440347   -0.382902
H         1.475495   -0.767291    1.494955
