34
0 1
C         1.900119   -1.167160   -0.038362
C         1.739865    1.320519    0.144672
N         2.238549    0.823779   -1.027873
N         2.325417   -0.445856   -1.119473
N         1.989946    0.637475    1.302456
N         2.069455   -0.632771    1.210069
C         1.646689    2.808384    0.257873
C         2.004374   -2.654370   -0.153013
H         1.469879   -3.147198    0.656099
H         3.056917   -2.936328   -0.083170
H         1.629071   -2.994255   -1.116331
H         0.975379    3.098001    1.063895
H         1.320209    3.247912   -0.682269
H         2.638280    3.203004    0.488667
C        -2.995950   -0.686196    0.829148
C        -3.500303    0.645720    0.252826
C        -0.260584   -0.663897   -0.190331
C        -2.604651    1.395714   -0.738168
C        -0.344602    0.561983   -0.164828
C        -1.195167    1.762004   -0.249891
C        -2.494602   -1.714008   -0.202390
C        -0.975886   -1.951270   -0.142269
H        -3.729638    1.310849    1.092240
H        -2.504328    0.825449   -1.665358
H        -4.454794    0.464706   -0.252777
H        -3.116374    2.324322   -1.008075
H        -0.758995    2.484654   -0.941564
H        -1.244392    2.255355    0.726011
H        -2.761866   -1.397713   -1.214028
H        -2.985045   -2.678047   -0.046672
H        -0.724507   -2.462525    0.791850
H        -0.664995   -2.610951   -0.954321
H        -2.204060   -0.491186    1.556463
H        -3.820121   -1.118978    1.401481
