17
0 1
N        -0.234602    2.128604    0.130893
C         1.001041    1.764514   -0.034537
N         1.169535    0.409726   -0.226652
C        -0.086187   -0.129527   -0.150889
C        -0.953492    0.947770    0.065323
C        -2.295081    0.620773    0.176812
N        -2.674922   -0.651309    0.082835
N        -0.429190   -1.404808   -0.234285
C        -1.742238   -1.587927   -0.111694
H        -2.094874   -2.611234   -0.172604
H        -3.063782    1.367946    0.343874
H         1.850205    2.433381   -0.036647
C         2.385818   -0.363764   -0.403328
O         2.642988   -1.196639    0.684678
H         1.984314   -1.901231    0.689147
H         2.288148   -0.935679   -1.329511
H         3.217173    0.333405   -0.491351
