47
0 1
C         0.772882    0.741441    0.652118
C         2.268810    0.827145    0.667987
C        -3.115737    0.500179   -1.540309
C         0.141128    1.929987   -0.061318
H         0.467911   -0.191994    0.163591
C        -1.361261    1.751470   -0.264497
H         0.327677    2.819486    0.545620
H         0.629039    2.086618   -1.027252
C        -1.670726    0.884626   -1.483582
H        -1.780473    1.280141    0.630264
C         3.079104   -0.091629    0.146658
C         4.531326   -0.000035    0.154259
C        -3.715567   -0.568947   -1.004808
C         5.346250   -0.919526   -0.362179
H        -1.419764    1.472616   -2.370516
H        -1.036164    0.001876   -1.460150
C         6.836384   -0.815760   -0.352470
H         7.280117   -1.671321    0.161053
H         7.148216    0.090950    0.179708
C        -2.939320   -1.577792   -0.240245
C        -3.036647   -3.681182    0.804371
H        -3.784623   -4.455462    0.952867
H        -2.690483   -3.293513    1.762529
H        -2.183473   -4.073094    0.250809
O        -3.688776   -2.653686    0.056745
O         0.254999    0.751400    1.978833
O        -2.010651    2.999082   -0.481284
O        -1.783228   -1.492947    0.106320
O         7.385463   -0.849671   -1.665655
H         6.975811   -0.149531   -2.181609
C         0.389514   -0.484292    2.649022
H        -0.143535   -1.274849    2.109810
H         1.441412   -0.769378    2.763262
H        -0.051939   -0.358031    3.637024
C        -2.319906    3.696545    0.702264
H        -2.802079    4.628420    0.409085
H        -3.006443    3.117829    1.332383
H        -1.425808    3.931465    1.290857
C        -5.195587   -0.800664   -1.150212
H        -5.401195   -1.733673   -1.678088
H        -5.683825   -0.875284   -0.176341
H        -5.651367    0.020158   -1.703895
H         4.932136   -1.802978   -0.842894
H         4.959471    0.883375    0.624457
H         2.685424    1.708128    1.152960
H         2.647902   -0.973783   -0.322200
H        -3.760285    1.199016   -2.065364
