43
0 1
C         2.224800   -1.907895    0.311798
C        -1.536593   -0.633312    0.977255
C        -0.400851   -0.015036    0.652414
C         2.546564   -0.569932    0.129681
O         0.705753    0.003017    1.483018
C         1.120291    1.384867   -0.213581
N         1.793145    0.492959    0.717770
H         1.363046   -2.181795    0.902243
O        -0.127324    0.709548   -0.453726
C         3.022021   -2.887018   -0.266943
C         4.131218   -2.543988   -1.024040
H         4.746272   -3.313407   -1.473372
C         4.453010   -1.202820   -1.191673
H         5.326040   -0.920522   -1.767472
C         3.673014   -0.217736   -0.610104
H         3.945861    0.825854   -0.710968
H         2.764441   -3.929469   -0.123978
C        -2.759005   -0.549360    0.153647
C        -4.000696   -0.821990    0.739119
C        -2.744469   -0.228713   -1.210353
C        -5.175502   -0.759262    0.004773
H        -4.055660   -1.081094    1.788016
C        -3.919656   -0.168235   -1.941961
H        -1.805011   -0.033731   -1.704844
C        -5.143978   -0.429322   -1.341612
H        -6.120569   -0.970715    0.491211
H        -3.875545    0.078816   -2.996377
H        -6.060058   -0.381798   -1.917700
C        -1.577690   -1.411527    2.267894
H        -2.024883   -2.395829    2.110049
H        -2.171703   -0.899767    3.030711
H        -0.579035   -1.549844    2.677836
C         0.895092    2.777464    0.354381
H         0.391758    2.652846    1.318474
C        -0.003143    3.588109   -0.575554
H        -0.180929    4.581344   -0.159506
H        -0.966772    3.101103   -0.724600
H         0.467376    3.719500   -1.555148
C         2.238905    3.462435    0.584517
H         2.773476    3.600291   -0.361100
H         2.870611    2.879681    1.255489
H         2.091626    4.450613    1.023572
H         1.660217    1.416320   -1.159215
