18
0 2
C         0.108607    0.329094   -0.768464
C         1.209827   -0.304829    0.061386
O         1.263069   -1.639089   -0.102827
O         1.918073    0.283103    0.833750
C        -1.198604    0.072955   -0.053900
H         0.081884   -0.201161   -1.724348
N         0.457814    1.721498   -0.992752
H         1.940172   -1.977181    0.500192
C        -1.464452    0.742045    1.250533
C        -1.992490   -1.131939   -0.419375
H         0.932251    2.111371   -0.186789
H        -0.362082    2.274949   -1.204426
H        -0.932842    1.689579    1.346327
H        -2.532842    0.932865    1.384308
H        -3.045731   -1.007988   -0.154372
H        -1.633001   -2.026845    0.110871
H        -1.926890   -1.352588   -1.487336
H        -1.152078    0.110448    2.096379
