23
0 1
C         3.273571    0.239752    0.257116
C         2.380549    1.296040    0.372134
C         1.029606    1.103617    0.115857
C         0.558417   -0.149140   -0.257921
C         1.459911   -1.201757   -0.385040
C         2.809082   -1.012124   -0.124409
H         4.327662    0.392308    0.455201
H         2.738239    2.278401    0.657469
H         0.330119    1.926335    0.185025
H         1.103427   -2.178733   -0.695167
H         3.500229   -1.840305   -0.226934
C        -0.910138   -0.398226   -0.481072
O        -1.597601    0.813972   -0.782623
C        -1.635368   -0.975228    0.739502
C        -2.855524    0.863517   -0.108146
C        -3.070969   -0.521854    0.494253
H        -1.234164   -0.521435    1.649410
H        -1.518660   -2.056232    0.817239
H        -2.808779    1.632765    0.670799
H        -3.626206    1.147455   -0.827048
H        -3.679090   -0.495134    1.398900
H        -3.561141   -1.181082   -0.226509
H        -1.025657   -1.083696   -1.331064
