20
-1 1
C         1.325058   -0.575468    0.340354
C         0.836765    0.579561   -0.551145
C        -0.624306    0.929152   -0.333517
C        -1.457297   -0.348297   -0.522301
O        -0.989601   -1.391388    0.308922
C         0.381480   -1.751166    0.058005
H         0.499348   -2.082343   -0.985031
O         2.640047   -0.777468    0.140181
H         1.091094   -0.281329    1.400184
O         1.699951    1.678079   -0.337782
H         0.945280    0.231784   -1.592841
H         2.529714    1.187606   -0.134936
O        -2.791153   -0.101305   -0.213993
H        -1.412655   -0.678852   -1.569256
H        -2.752285    0.542746    0.512516
N        -0.961589    1.492376    0.979519
H        -0.958712    1.652118   -1.086333
H        -0.537896    0.908818    1.694605
H        -0.516482    2.399044    1.061660
H         0.599559   -2.592262    0.715805
