15
0 1
C        -0.263747    0.671655   -0.001449
C         0.997542    1.306885    0.009377
C         2.130157    0.538183    0.010701
C         2.046464   -0.865107    0.002736
C         0.801051   -1.430688   -0.005809
N        -0.313788   -0.682447   -0.005285
H         3.102222    1.017359    0.016862
H         1.026091    2.387335    0.013088
H         2.931443   -1.484825    0.001163
H         0.651010   -2.503205   -0.014505
O        -1.377404    1.319459   -0.007291
H        -2.222693    0.510212   -0.022766
O        -2.716810   -0.644037   -0.078669
H        -1.501438   -0.995185   -0.003252
H        -3.305209   -0.883509    0.640757
