63
1 1
C         2.427515    1.540605   -0.782071
C         1.639374    0.819252    1.649642
C         0.285492    1.437714    1.294681
C         0.395118    2.621904    0.337691
C         1.042265    2.161702   -0.964671
H        -0.355261    0.681045    0.839093
H        -0.191037    1.752080    2.225403
H         1.014271    3.397280    0.792870
H         0.376085    1.440961   -1.436227
H         1.143675    3.005480   -1.650269
N         2.408654    0.580485    0.377577
O         3.375366   -0.217984    0.434736
C         2.803528    0.771181   -2.046139
H         2.090201   -0.025488   -2.253738
H         2.777113    1.463165   -2.887934
H         3.807343    0.353899   -1.982890
C         3.510954    2.598294   -0.515292
H         4.455306    2.120977   -0.252287
H         3.662857    3.176312   -1.427666
H         3.239829    3.293844    0.275561
C         1.434140   -0.501515    2.380580
H         2.382055   -0.986773    2.608645
H         0.924930   -0.294499    3.321997
H         0.812553   -1.177370    1.799740
C         2.487940    1.737735    2.547394
H         2.603896    2.742259    2.148593
H         2.000272    1.819125    3.519373
H         3.478708    1.308286    2.698635
C         2.745067   -2.483177   -0.652134
H         2.899769   -2.177576   -1.694617
H         3.085829   -1.425594   -0.084403
O         3.590477   -3.456210   -0.215742
C         4.931059   -3.348744   -0.683086
H         5.461556   -4.217174   -0.302682
H         4.957744   -3.352846   -1.776521
C         1.389522   -2.635309   -0.215676
H         1.245093   -3.286346    0.641270
C         0.322128   -1.971678   -0.740770
H         0.455199   -1.337547   -1.612187
H         5.400341   -2.437585   -0.302495
N        -0.896876    3.261343    0.109494
H        -1.034882    4.180230    0.496005
C        -1.942453    2.685985   -0.540240
C        -3.202911    3.506336   -0.627354
H        -4.006621    2.953756   -0.138834
H        -3.118655    4.491993   -0.170373
H        -3.472128    3.620916   -1.677603
O        -1.871260    1.567725   -1.027127
C        -0.997705   -2.100403   -0.222264
H        -1.131325   -2.763748    0.625915
C        -2.046682   -1.422089   -0.739468
H        -1.854914   -0.739017   -1.559385
C        -3.422565   -1.467283   -0.286137
C        -4.336984   -0.574385   -0.858296
C        -3.876017   -2.362535    0.692683
C        -5.663321   -0.571596   -0.461384
H        -3.983025    0.128203   -1.602084
C        -5.200147   -2.358115    1.086301
H        -3.195198   -3.076905    1.138143
C        -6.097074   -1.462153    0.511361
H        -6.362501    0.120936   -0.913345
H        -5.542362   -3.058353    1.837901
H        -7.135278   -1.465325    0.819845
