15
0 2
C        -1.952005   -0.484139    0.082717
C        -0.486618   -0.583316    0.390266
C         0.317552    0.661039    0.048009
H        -0.104313   -1.465022   -0.139847
H        -0.396250   -0.837186    1.454796
C         1.809692    0.497740    0.344163
H        -0.081334    1.511822    0.604865
H         0.176340    0.902462   -1.009066
C         2.483986   -0.518224   -0.505689
H         1.957660    0.258396    1.403652
H         2.296755    1.475236    0.200887
O        -2.487198    0.471546   -0.413098
H        -2.549921   -1.381606    0.346202
H         2.171404   -0.665578   -1.533290
H         3.391601   -1.009488   -0.180203
