39
-1 1
S         1.935179    1.744099   -1.726279
C         0.412094    2.700630   -1.393279
S         0.791111   -0.340574   -1.512202
C         1.628290   -0.813193    0.043847
C         2.758714   -1.829718   -0.127660
H         0.870303   -1.223736    0.708328
H         2.034461    0.095375    0.482803
C        -0.088860    2.640884    0.060191
H        -0.382114    2.299882   -2.022909
H         0.574853    3.738221   -1.691233
N         2.281406   -3.065860   -0.714267
C         3.420088   -2.024746    1.227667
H         3.531523   -1.396100   -0.766364
O         4.549633   -1.715706    1.509033
O         2.603804   -2.609744    2.131547
N        -1.443136    3.163251    0.146566
C         0.812104    3.388541    1.041642
H        -0.040929    1.587816    0.366617
O         0.379601    4.123059    1.894231
O         2.119509    3.156667    0.939741
S        -0.931264   -2.144426   -1.169906
C        -1.972877   -0.917718   -0.315059
C        -3.396971   -1.399524   -0.114601
H        -1.988922   -0.006057   -0.911156
H        -1.548224   -0.668624    0.661482
N        -3.435442   -2.539113    0.798265
C        -4.266798   -0.289672    0.436952
H        -3.814985   -1.636821   -1.106324
O        -3.973758    0.871120    0.549803
O        -5.499227   -0.736147    0.774100
H         2.310636    2.596412    0.141876
H         3.101397   -2.670253    2.957853
H        -5.986043    0.026485    1.114889
H        -2.130294    2.418014    0.127767
H        -1.548823    3.679353    1.012661
H         1.344286   -3.300330   -0.405196
H         2.911521   -3.842201   -0.567818
H        -4.333817   -3.004588    0.768123
H        -2.716233   -3.193282    0.503003
