37
0 1
O         4.039936   -0.033527   -0.032883
C         3.156203   -1.020226    0.483414
C         2.423302   -1.700546   -0.636781
C         1.163175   -2.119962   -0.671799
C         0.150662   -1.993762    0.416857
O        -1.033934   -1.411544   -0.168120
H         0.481744   -1.362182    1.238847
H        -0.119366   -2.968719    0.830711
H         2.472096   -0.589236    1.219006
H         3.780909   -1.753512    1.003701
C         3.661718    1.323333    0.185372
C        -1.799631   -0.660551    0.641382
C        -2.820223    0.161435   -0.140877
O        -1.660725   -0.638158    1.835115
C         2.305398    1.628735   -0.362679
H         4.439912    1.902482   -0.314904
H         3.696832    1.558550    1.257040
C         1.284611    2.041614    0.384407
C        -0.116973    2.114349   -0.043008
C        -0.631218    1.249103   -0.914020
C        -2.085443    1.040143   -1.214008
H        -2.178305    0.557975   -2.188486
H        -2.614589    1.993717   -1.275169
C        -3.564689    1.058412    0.846627
H        -4.045369    0.469401    1.627779
H        -4.329560    1.630046    0.316588
H        -2.883883    1.756134    1.335708
C        -3.803530   -0.790645   -0.833232
H        -4.522819   -0.213517   -1.418915
H        -4.360824   -1.380252   -0.101715
H        -3.281212   -1.473576   -1.503958
H         3.047304   -1.874029   -1.508974
H         0.806336   -2.614300   -1.570637
H         2.160159    1.421192   -1.419168
H         1.469434    2.274278    1.431702
H         0.040787    0.522403   -1.355225
H        -0.761956    2.820400    0.473240
