41
0 1
C        -2.573466   -0.149838   -1.328218
C        -1.191320    0.453713   -1.099891
C        -0.408574   -0.157516    0.100551
C        -1.331480   -0.369160    1.324830
C        -2.743895   -0.845195    1.066575
C        -3.454401   -0.126080   -0.082137
C         0.617556    0.911558    0.427247
C         0.132625    2.213614   -0.120438
C        -1.174096    1.962495   -0.844572
O         0.675514    3.283150   -0.005457
C         0.130433   -1.573702   -0.200899
C         1.071706   -1.743232   -1.407579
C         2.239532   -0.815100   -1.554606
N         3.174594   -0.621806   -0.678555
O         4.122992    0.214005   -0.826028
C         1.763318    0.877188    1.102319
C         2.450072   -0.315656    1.695403
C         3.125548   -1.252691    0.648961
O        -0.910890   -0.240805    2.447037
C        -4.822991   -0.741659   -0.347254
H        -0.588612    0.276523   -1.995144
H        -1.981346    2.273152   -0.172598
H        -1.248393    2.570756   -1.745616
H        -2.471428   -1.188200   -1.665730
H        -3.068024    0.386132   -2.143640
H        -0.719725   -2.236830   -0.380854
H         0.601179   -1.953926    0.704164
H        -3.293350   -0.760392    2.004972
H        -2.683920   -1.915111    0.828380
H        -3.609730    0.915826    0.217590
H        -4.725218   -1.786365   -0.657405
H        -5.348069   -0.205097   -1.140551
H        -5.449446   -0.715877    0.547046
H         1.415194   -2.784562   -1.399448
H         0.490594   -1.645213   -2.325680
H         1.734565   -0.895738    2.279419
H         3.216894    0.035536    2.383381
H         2.611115   -2.207113    0.571745
H         4.164140   -1.433037    0.910115
H         2.366727   -0.229860   -2.455488
H         2.280366    1.828817    1.179055
