41
0 1
C         1.807395    0.866110    0.798597
C         0.507556    0.010686    0.517989
C         1.286102    2.300738    0.912072
C         2.840126    0.806991   -0.333410
C         0.895949   -1.318701   -0.125776
C        -0.258754    0.944911   -0.411902
C        -0.196131   -0.200744    1.882056
C         1.864363   -1.265152   -1.278505
C         3.171748   -0.601258   -0.818229
C         3.896823   -1.439094    0.233066
C         0.161342    2.353293   -0.104270
C        -2.709685   -0.264844    1.315396
C        -1.544629   -0.940095    1.962409
N        -3.139707   -0.480380    0.113004
O        -4.127149    0.132780   -0.413684
C        -1.734239   -0.540511   -1.897666
C        -2.427955   -1.377757   -0.811438
H         2.259975    0.521381    1.729573
H         2.037205    3.059166    0.691536
H         0.875003    2.527398    1.898559
H         3.747164    1.315198    0.006346
H         2.467060    1.386182   -1.185347
O         0.502695   -2.377923    0.309121
H        -0.323452    0.780266    2.345218
H         0.503511   -0.752512    2.515764
H         1.432188   -0.672679   -2.089346
H         2.025331   -2.284169   -1.630460
H         3.825254   -0.514375   -1.690910
H         4.146110   -2.426846   -0.159867
H         3.290288   -1.593597    1.128719
H         4.825889   -0.953396    0.539578
O        -0.303002    3.350507   -0.593297
H        -1.417899   -1.960645    1.613182
H        -1.783177   -1.015486    3.027055
H        -1.719450   -1.990299   -0.268037
H        -3.188197   -2.013805   -1.260343
C        -1.128247    0.739020   -1.399361
H        -2.464757   -0.292768   -2.664893
H        -0.975074   -1.174426   -2.367218
H        -1.474658    1.648745   -1.882125
H        -3.281308    0.484862    1.848706
