52
-1 1
C         4.224638   -0.615837   -1.396711
C         3.311126    0.616171   -1.275779
C         2.370415    0.397899   -0.141078
C         2.480222   -0.535471    0.796927
C         3.567803   -1.556587    0.888570
C         4.720054   -1.115788   -0.030893
H         3.899589    1.525065   -1.100886
H         2.768983    0.783555   -2.214048
H         3.662397   -1.424004   -1.879996
H         5.082210   -0.400454   -2.043913
H         3.930151   -1.669538    1.917453
H         3.199721   -2.548512    0.586788
H         5.263434   -0.301308    0.461309
H         5.433811   -1.935068   -0.171386
C        -0.568647   -0.922788   -0.008601
C        -0.167668    0.528146   -0.429515
C         1.062938    1.018931    0.420362
C         1.215127   -0.170745    1.542775
C         0.030843   -1.118911    1.412146
H         0.108211    0.537260   -1.490136
H        -0.722914   -0.849708    2.156673
H         0.294174   -2.170286    1.589360
O         1.094392    2.292671    0.758546
C        -1.485748    1.321661   -0.382622
C        -2.141456   -0.929532   -0.000529
H        -2.453066   -0.697756    1.023762
C        -2.512239    0.295491   -0.833125
H        -2.379022    0.109736   -1.904485
H        -3.522773    0.668375   -0.661900
C         0.016259   -1.932133   -1.003369
H         1.096252   -1.800187   -1.065330
H        -0.177048   -2.968269   -0.712233
H        -0.395046   -1.780719   -2.006219
C        -2.849654   -2.233394   -0.385233
H        -2.446456   -2.586220   -1.340790
C        -4.353759   -2.023808   -0.571554
H        -4.570143   -1.342336   -1.395737
H        -4.856133   -2.973974   -0.778569
H        -4.799148   -1.600583    0.334774
C        -2.618535   -3.319305    0.667219
H        -1.558769   -3.495432    0.849875
H        -3.066993   -3.019877    1.619985
H        -3.075533   -4.266894    0.365025
O        -1.856344    1.761931    0.916550
O        -1.530757    2.470271   -1.196478
C        -1.176840    3.586137   -0.381306
H        -0.099387    3.745637   -0.415256
H        -1.741731    4.447710   -0.747313
C        -1.571420    3.151778    1.035140
H        -0.729281    3.291026    1.711220
H        -2.481492    3.645527    1.395895
H         1.356926    0.226756    2.550186
