52
0 1
C         1.284905    2.330918    0.640552
C         0.569877    1.166877    1.389354
C        -1.411875    1.478220   -0.972103
H         2.359744    2.219673    0.797572
C        -0.687863    1.628147    2.157157
H        -1.237754    0.752065    2.518454
H        -0.353309    2.158203    3.055639
H        -2.084989    1.373913   -1.827536
H         1.271925    0.821235    2.151046
C        -1.642071    2.551413    1.407974
H        -2.426222    2.869560    2.102234
H        -1.114282    3.467603    1.130042
C        -2.317029    1.966185    0.173083
H        -2.978836    1.153439    0.484135
H        -2.975537    2.738244   -0.239627
C        -0.375410    2.550118   -1.394436
H        -0.310914    2.550400   -2.486861
C         1.058353    2.401647   -0.875326
H         1.496420    1.510652   -1.338053
H         1.642026    3.240547   -1.267480
H        -0.762064    3.538320   -1.124388
H         1.009551    3.284200    1.101704
C        -0.777486    0.084664   -0.737313
H        -0.283616   -0.234088   -1.669929
Si        -2.085110   -1.310457   -0.587674
C        -2.635366   -1.636155    1.180089
H        -3.165417   -0.786430    1.613976
H        -3.312784   -2.494440    1.206442
H        -1.787560   -1.866937    1.828877
C        -1.401215   -2.911843   -1.303086
H        -2.209835   -3.642243   -1.396299
H        -0.983855   -2.755715   -2.301116
H        -0.625758   -3.366745   -0.686702
C        -3.584790   -0.862179   -1.630594
H        -3.307103   -0.699792   -2.675276
H        -4.303817   -1.685753   -1.606454
H        -4.097751    0.034014   -1.278296
B         0.324836    0.008171    0.351250
C         1.342501   -1.249490    0.358701
C         1.399585   -1.858347    1.729969
H         1.971712   -1.301044    2.463400
C         0.806431   -2.989906    2.083647
H         0.235466   -3.587065    1.381716
H         0.879456   -3.365325    3.096877
C         2.687861   -0.720666   -0.051340
O         3.540993   -0.300417    0.686073
O         2.819082   -0.719881   -1.391879
C         4.035858   -0.162242   -1.895919
H         3.976840   -0.257831   -2.976906
H         4.120735    0.886055   -1.608326
H         4.895187   -0.708304   -1.508187
H         1.035497   -1.982651   -0.385492
