27
-1 1
C        -1.691482    0.283970   -0.049693
C        -1.103110    1.669315   -0.103139
C         0.336365    1.822069   -0.469453
O        -1.813794    2.621421    0.175221
C         1.261302    1.488880    0.735467
C         2.390181    0.775628    0.712168
C         2.837330    0.188135   -0.575960
O         4.047726   -0.600532   -0.508660
C         3.933360   -1.666605    0.390665
H         2.073249   -0.473404   -1.041137
H         3.087123    0.961377   -1.314035
H         4.906826   -2.160794    0.443793
H         3.634884   -1.304857    1.380438
H         3.183126   -2.401592    0.046899
C        -3.078592    0.151619   -0.067878
C        -3.668354   -1.102473   -0.044223
C        -2.873000   -2.241442    0.011476
C        -1.490246   -2.116420    0.042919
C        -0.898993   -0.860988    0.008986
H        -3.676088    1.054361   -0.098842
H        -4.748642   -1.194543   -0.066139
H        -3.331116   -3.224160    0.035946
H        -0.864841   -2.999708    0.101677
H         0.176112   -0.759531    0.073651
H         0.476265    2.859351   -0.788470
H         0.576119    1.165641   -1.309302
H         0.906962    1.960612    1.655011
