32
0 1
C        -2.767155   -0.702362   -1.889792
C        -2.071275   -1.397357   -0.932193
C        -1.360629   -0.700105    0.060171
C        -1.360629    0.700105    0.060171
C        -2.071275    1.397357   -0.932193
C        -2.767155    0.702362   -1.889792
H        -3.319519   -1.237578   -2.652451
H        -2.070640   -2.479436   -0.938065
C        -0.595738   -1.332560    1.097453
C        -0.595738    1.332560    1.097453
H        -2.070640    2.479436   -0.938065
H        -3.319519    1.237578   -2.652451
N        -0.228628   -0.658247    2.183427
N        -0.228628    0.658247    2.183427
C        -0.459656    2.822883    1.174341
H        -0.079452    3.238245    0.239956
H        -1.428414    3.287597    1.378271
H         0.220955    3.074503    1.984723
C        -0.459655   -2.822883    1.174341
H        -1.428414   -3.287597    1.378271
H        -0.079452   -3.238245    0.239956
H         0.220955   -3.074503    1.984723
C         3.491587   -0.699655   -1.174859
C         2.478212   -1.440532   -0.550879
C         1.534266   -0.627740    0.036207
C         1.534266    0.627740    0.036207
C         2.478212    1.440532   -0.550879
C         3.491587    0.699655   -1.174859
H         4.300750   -1.225860   -1.668804
H         2.479051   -2.523424   -0.550310
H         2.479051    2.523424   -0.550310
H         4.300750    1.225860   -1.668804
