27
0 1
C         2.282669    0.501780   -0.067957
C         2.666425   -0.968414   -0.282045
O         3.432548   -1.466427    0.683492
O         2.325169   -1.597322   -1.243890
C         0.874373    0.768781   -0.590944
H         2.968706    1.071376   -0.701446
N         2.540900    0.891493    1.314488
H         3.531195   -0.746696    1.343051
C        -0.243060    0.102129    0.180035
H         1.736331    0.735067    1.911133
H         2.787925    1.869714    1.385072
H        -0.040593   -0.973007    0.208786
C        -1.615731    0.348597   -0.437287
H        -0.244161    0.463894    1.214035
H        -1.617632   -0.033904   -1.463830
H        -1.789997    1.426165   -0.504826
C        -2.738627   -0.305664    0.357902
H        -2.556879   -1.385342    0.425945
C        -4.111772   -0.069987   -0.252149
H        -2.746878    0.072510    1.384642
H        -4.106934   -0.421398   -1.295097
H        -4.310463    1.005204   -0.282935
N        -5.150324   -0.692918    0.563484
H        -5.056771   -1.702129    0.565564
H        -6.076425   -0.472901    0.218895
F         0.689686    2.162849   -0.541635
H         0.833974    0.482450   -1.642222
