47
0 1
C         2.684083   -0.495924    0.428844
C         1.259445   -1.055447    0.345013
C         0.228143    0.035169    0.713177
C         2.858258    0.739242   -0.435063
H         2.883997   -0.234479    1.480551
C         1.831780    1.801914   -0.094916
H         3.865635    1.137442   -0.307829
H         2.746429    0.465956   -1.487258
C         0.411978    1.253195   -0.201149
H         1.998636    2.152390    0.937468
C         0.919314   -1.617222   -1.005849
C        -0.336889   -1.968333   -1.238004
C        -1.222705   -0.573863    0.746306
C        -1.335981   -1.883229   -0.118226
H        -0.292404    2.036488    0.081953
H         0.211255    0.990355   -1.241924
C        -2.756120   -2.275796   -0.569702
H        -3.492539   -1.929068    0.168893
H        -2.820071   -3.365020   -0.589860
C        -2.175838    0.502024    0.251058
C        -3.313275    2.485303    0.792832
H        -2.819557    3.061084    0.010036
H        -3.457372    3.090563    1.683512
H        -4.267404    2.119086    0.416204
O        -2.485440    1.390414    1.201799
O         3.658957   -1.430240    0.005173
O         2.057106    2.886861   -0.976641
O        -2.591229    0.618818   -0.877363
O        -3.108075   -1.857385   -1.867231
H        -3.022885   -0.894702   -1.886253
C         3.804080   -2.555821    0.838374
H         4.691498   -3.089248    0.500631
H         3.944803   -2.258241    1.885806
H         2.944359   -3.231910    0.774203
C         1.403696    4.082122   -0.625892
H         1.616630    4.360046    0.414950
H         1.787109    4.860431   -1.284347
H         0.317809    4.018277   -0.758603
C        -1.555821   -0.943239    2.199639
H        -1.566615   -0.065315    2.842369
H        -2.528813   -1.433999    2.274068
H        -0.802059   -1.638672    2.574455
H        -0.668947   -2.347523   -2.195993
H         1.693116   -1.702134   -1.759001
H         0.438988    0.368863    1.734923
H         1.166922   -1.853828    1.092437
H        -1.043961   -2.665165    0.594063
