20
0 2
C        -0.500200   -0.586849   -0.341007
C         0.778707   -1.349361    0.016692
C         1.909537   -0.298940    0.001788
H         0.965704   -2.184947   -0.660926
H         0.667097   -1.772868    1.020157
C         1.203851    1.075610    0.002508
H         2.542624   -0.408146   -0.880509
H         2.561703   -0.414021    0.869149
C        -0.272282    0.790161    0.333828
H         1.257821    1.532131   -0.990254
H         1.649484    1.784920    0.701383
C        -1.209486    1.855282   -0.090344
C        -1.784230   -1.285733    0.070966
H        -1.805555   -1.445425    1.153434
H        -1.875578   -2.262321   -0.410870
H        -2.662709   -0.695722   -0.199377
H        -2.055500    2.151005    0.515646
H        -1.111746    2.300127   -1.074647
H        -0.370418    0.629902    1.415292
H        -0.518309   -0.415655   -1.425067
