9
0 1
C        -1.217947   -0.222275   -0.000049
C         0.082144    0.547875   -0.000086
H        -1.282813   -0.858415   -0.884363
H        -2.069344    0.461836   -0.000306
H        -1.283020   -0.858012    0.884539
H         0.140487    1.191350    0.886441
H         0.140606    1.191057   -0.886818
H         1.985850    0.073502    0.000171
O         1.147882   -0.394365    0.000143
