18
0 1
S        -3.083717   -0.455257    0.000040
C        -1.335560   -0.253689    0.000009
C        -0.727455    0.994096    0.000046
C         0.657506    1.069186    0.000037
C         1.440262   -0.080934    0.000002
C         0.808505   -1.325824   -0.000032
C        -0.566996   -1.419757   -0.000035
H        -1.328426    1.892228    0.000076
H         1.120715    2.047375    0.000062
H         1.424365   -2.215832   -0.000065
H        -1.041787   -2.394781   -0.000076
C         2.934176   -0.042329   -0.000005
O         3.573804   -1.070553   -0.000034
C         3.625298    1.299084    0.000027
H         3.344616    1.879777   -0.881627
H         4.700585    1.137216    0.000019
H         3.344621    1.879733    0.881711
F        -3.536675    1.131537   -0.000084
