55
0 1
C        -6.228579   -0.781604   -1.287598
C        -5.197404   -1.374552   -0.335012
C        -3.899083   -0.592046   -0.319907
C        -2.753904   -1.222639    0.472423
C        -1.515448   -0.287318    0.456261
C        -0.284986   -0.850215   -0.221949
C         0.902284   -0.664463    0.357879
C         2.264981   -0.895316   -0.224033
C         2.807917    0.347926   -1.011001
C         2.772539    1.680477   -0.286989
C         1.690825    2.448254   -0.131961
C         0.367507    2.022579   -0.578461
C        -0.751226    2.077894    0.138125
C        -1.866440    1.131201   -0.156894
C        -3.205113    1.590625    0.375548
C        -3.145078   -1.570780    1.907911
C         3.247195   -1.386552    0.852579
C         4.610570   -1.699132    0.238521
C         5.192326   -0.510718   -0.520438
C         4.212236    0.030332   -1.553201
C        -0.458235   -1.397525   -1.611321
O        -3.409989    2.646301    0.903499
O        -4.210291    0.704638    0.230608
O         3.353358   -0.487860    1.945781
O         5.518778    0.557867    0.386070
H        -6.462407    0.246727   -1.009544
H        -7.155377   -1.357632   -1.268952
H        -5.859055   -0.778025   -2.316765
H        -5.601822   -1.404634    0.678733
H        -4.965915   -2.405974   -0.619561
H        -3.573639   -0.447976   -1.356981
H        -2.502695   -2.152393   -0.043268
H         3.711530    2.025169    0.128935
H         1.772396    3.368474    0.438411
H        -3.493852   -0.686552    2.446239
H        -2.279898   -1.969775    2.440788
H        -3.934176   -2.322888    1.945704
H         2.835375   -2.303202    1.282108
H         4.507797   -2.540075   -0.454761
H         5.298152   -2.017270    1.027781
H         6.106842   -0.816773   -1.040155
H         4.122543   -0.730280   -2.335347
H         4.642600    0.918447   -2.020828
H        -0.850988   -0.633309   -2.291178
H        -1.165906   -2.229693   -1.636798
H         0.479372   -1.754488   -2.033585
H         3.906081    0.253764    1.670735
H         6.251276    0.279324    0.943147
H         2.152486    0.438511   -1.882082
H         2.214152   -1.701180   -0.964433
H        -1.241082   -0.084718    1.493294
H        -1.978795    1.012581   -1.239296
H         0.347096    1.441743   -1.495894
H        -0.794754    2.613240    1.081004
H         0.920520   -0.207291    1.341976
