24
0 1
C         2.125135   -1.201140   -0.341756
C         3.494051   -1.078406   -0.504822
C         4.147442    0.108811   -0.195138
C         3.400263    1.176367    0.287996
C         2.030891    1.066754    0.459071
C         1.359790   -0.131266    0.155183
H         1.629528   -2.130260   -0.595756
H         4.059069   -1.923097   -0.882963
H         5.217985    0.200384   -0.328732
H         3.890938    2.110823    0.536611
H         1.462509    1.908601    0.836001
C        -0.046535   -0.242487    0.309781
C        -1.031175   -0.505460    1.050668
H        -1.300891   -0.832118    2.044045
H        -2.499376   -1.116678   -1.167100
P        -2.718841   -0.236339   -0.095830
C        -2.521448    1.407239   -0.846308
H        -2.906663    2.163456   -0.160402
H        -1.456481    1.570534   -1.007331
H        -3.050408    1.480584   -1.796247
C        -4.544770   -0.377997    0.168234
H        -4.786757   -1.377865    0.529154
H        -4.856428    0.344439    0.923963
H        -5.102273   -0.188207   -0.751251
