33
0 2
C         0.906243    0.057226   -0.171446
C         1.392244   -0.786800   -1.365421
C         2.934893   -0.659482   -1.365427
H         0.943316   -0.462662   -2.306496
H         1.094690   -1.825036   -1.206782
C         3.294027    0.112872   -0.082823
H         3.299740   -0.144603   -2.255595
H         3.394247   -1.649227   -1.364750
C         2.076857   -0.038486    0.836049
H         3.441235    1.174877   -0.306060
H         4.211375   -0.244931    0.386930
C         2.002027    0.937753    1.947770
H         1.439385    0.714200    2.844484
H         2.421508    1.931589    1.837612
C        -0.397525   -0.463854    0.406045
O        -0.394403   -1.397423    1.195804
N        -1.560380    0.117325    0.003323
C        -1.676277    2.573408   -0.380309
C        -1.660025    1.177566   -0.991417
H        -0.746869    2.773378    0.156236
H        -2.499862    2.678964    0.328609
H        -1.797570    3.332804   -1.156259
H        -0.848194    1.082973   -1.711148
H        -2.579650    1.006889   -1.556776
C        -3.373391   -1.560833   -0.225931
C        -2.809804   -0.388007    0.565111
H        -4.318445   -1.896422    0.207023
H        -2.671243   -2.394804   -0.205809
H        -3.558694   -1.286057   -1.267418
H        -2.615136   -0.691625    1.592355
H        -3.521908    0.440426    0.588470
H         0.814849    1.102987   -0.470236
H         2.039496   -1.053784    1.242715
