31
-1 1
C        -1.135946    0.929262    0.299092
C        -2.471279    0.185214    0.232725
C        -2.191636   -1.238412    0.722038
H        -3.160607    0.668733    0.927694
C        -1.022685   -1.890133   -0.027472
C         0.087685   -1.054690   -0.332315
O        -0.207697    0.353973   -0.565767
C        -1.246893    2.402360   -0.119373
C         1.128728   -1.479783   -1.309273
H         0.950771   -0.851869    0.825036
O         2.495166   -1.218626   -0.885764
H         0.995254   -0.971806   -2.269768
H         1.062175   -2.556688   -1.447817
P         2.904092   -0.090802    0.195536
O         4.323481   -0.170104    0.558456
O         1.818014   -0.271356    1.328121
O         2.567192    1.323448   -0.510588
H         1.615255    1.469781   -0.627455
O        -1.082923   -3.111491   -0.208076
O        -3.327959   -2.062769    0.609425
H        -1.878460   -1.179681    1.770239
H        -2.961986   -2.922715    0.339163
O        -2.242766    3.069935   -0.074476
O        -0.050811    2.905977   -0.471013
H        -0.164535    3.852929   -0.626705
O        -0.686996    0.955141    1.636130
H         0.280904    0.825471    1.651491
C        -3.063550    0.192223   -1.172364
H        -3.957756   -0.429516   -1.188108
H        -3.332255    1.202977   -1.479904
H        -2.354304   -0.214853   -1.896848
