39
0 1
C         2.375835    0.522420    0.663576
O         3.170324   -0.511601    0.914639
C         1.255856    0.704993    1.459103
C         0.289913    1.667626    1.215898
C        -0.939134    1.717613    2.079192
C         0.385006    2.490465    0.074407
C        -0.577770    3.618891   -0.160865
C         0.181305    1.138675   -1.471317
C         1.243969    0.217134   -1.456414
C         1.069518   -1.161549   -1.062249
O         1.935709   -2.012309   -1.220732
C        -0.229893   -1.511111   -0.408111
C        -1.319087   -0.625443   -0.487421
C        -1.181684    0.666156   -1.162328
O        -2.167555    1.361457   -1.425237
C        -2.553460   -0.996283    0.077591
C        -2.659431   -2.206784    0.761599
C        -1.569958   -3.052710    0.840196
C        -0.355718   -2.721227    0.244142
C         4.338609   -0.631871    0.103401
O        -3.635992   -0.213038   -0.005733
H         1.085973   -0.041215    2.226913
H        -1.853079    1.600474    1.492834
H        -0.920402    0.931367    2.832862
H        -1.014711    2.681414    2.590665
H        -0.394767    4.093834   -1.125233
H        -1.614964    3.285853   -0.151523
H        -0.458118    4.381938    0.615096
H         2.132075    0.426241   -2.040450
H        -3.612944   -2.464598    1.204273
H        -1.669807   -3.996150    1.364030
H         0.198596    1.934738   -2.206890
H         1.389349    2.705831   -0.270265
H         2.804423    1.320321    0.070479
H         0.495831   -3.387225    0.272391
H        -3.402992    0.542258   -0.592861
H         4.947747   -1.406291    0.561862
H         4.053960   -0.939105   -0.902379
H         4.890701    0.312270    0.092314
