67
1 1
C         1.260663   -2.027901   -0.717309
C         1.190829   -0.941871    1.675253
C         2.365146   -0.059592    1.244855
C         3.265643   -0.689327    0.186005
C         2.448368   -1.112866   -1.030822
H         1.978600    0.880276    0.852445
H         2.953957    0.172104    2.134979
H         3.764955   -1.563396    0.609240
H         2.084568   -0.209133   -1.519519
H         3.092551   -1.631808   -1.743762
N         0.498748   -1.447767    0.442032
O        -0.745097   -1.708906    0.512727
C         0.358593   -2.078799   -1.941522
H         0.944077   -2.458244   -2.778830
H        -0.493595   -2.739723   -1.797830
H         0.009349   -1.087468   -2.216352
C         1.694007   -3.465184   -0.385167
H         2.504853   -3.517477    0.335775
H         0.850977   -4.043911   -0.005569
H         2.041620   -3.938752   -1.304404
C         0.232697   -0.112105    2.514481
H         0.797052    0.311946    3.345122
H        -0.193463    0.710320    1.944639
H        -0.560959   -0.727765    2.930548
C         1.644605   -2.137379    2.533674
H         2.493780   -2.671538    2.117689
H         1.941989   -1.761410    3.513447
H         0.825173   -2.842909    2.676412
C        -2.632382   -0.045641   -0.013417
H        -1.526996   -0.872335    0.060195
C        -1.951419    1.263686    0.134131
C        -0.717338    1.474200   -0.489704
C        -2.525670    2.303643    0.872213
C        -0.053385    2.684210   -0.361845
H        -0.265093    0.687753   -1.077305
C        -1.874700    3.520206    0.975823
H        -3.495398    2.172395    1.334568
C        -0.635049    3.707894    0.372184
H         0.916815    2.811503   -0.825605
H        -2.337660    4.329462    1.526573
H        -0.127548    4.659690    0.467837
O        -3.396053   -0.516986    0.981577
C        -3.184227   -0.293943    2.378368
H        -4.136552    0.035069    2.791955
H        -2.420206    0.451481    2.566435
H        -2.908148   -1.249031    2.823042
C        -3.336309   -0.392701   -1.350325
C        -2.600997    0.115032   -2.589221
H        -1.640349   -0.369397   -2.740446
H        -3.211199   -0.112799   -3.464279
H        -2.449106    1.193746   -2.565191
C        -3.571768   -1.902419   -1.449013
H        -4.135220   -2.273810   -0.594289
H        -4.140966   -2.122734   -2.353150
H        -2.631031   -2.451195   -1.505249
C        -4.698137    0.335790   -1.288773
H        -5.232496    0.151464   -2.222005
H        -5.307949   -0.028311   -0.463757
H        -4.567992    1.415038   -1.187338
N         4.341395    0.220718   -0.198255
H         5.288999   -0.072389   -0.028929
C         4.145117    1.438484   -0.773667
C         5.387489    2.226553   -1.096076
H         5.397539    2.435215   -2.166253
H         5.335796    3.183896   -0.576775
H         6.312199    1.719571   -0.821190
O         3.028077    1.870158   -1.016813
