33
-1 1
N        -0.166254    1.350843   -0.083598
C         1.049103    0.638470   -0.064604
C         1.023118   -0.755849   -0.238974
N        -0.196349   -1.368153   -0.410572
C        -1.296241   -0.766932    0.389699
C        -1.360804    0.705881   -0.017400
N        -2.459982    1.392904   -0.153264
C        -3.663082    0.739825   -0.159148
C        -2.573842   -1.484114   -0.053288
N        -3.668844   -0.664371   -0.153605
C         2.272092    1.280674    0.073197
C         3.481008    0.590188    0.034424
C         3.458946   -0.794515   -0.146494
C         2.234719   -1.439129   -0.273179
O        -4.735645    1.313653   -0.217133
O        -2.657546   -2.687345   -0.204425
O        -1.177586   -0.828032    1.697866
C        -0.133858    2.801486   -0.135776
H        -1.155080    3.148357   -0.256941
H         0.476854    3.134336   -0.977942
H         0.279991    3.209544    0.790809
C         4.780547    1.333765    0.192689
H         5.434956    1.203801   -0.675704
H         5.342960    0.990298    1.067189
H         4.602679    2.403533    0.315053
C         4.737636   -1.587625   -0.189674
H         5.307446   -1.484843    0.739202
H         5.392085   -1.256238   -1.002268
H         4.532087   -2.648595   -0.338113
H         2.297884    2.352322    0.218374
H         2.208409   -2.516867   -0.399599
H        -4.575353   -1.098741   -0.254728
H        -0.194757   -2.374432   -0.297357
