34
0 2
N        -0.567708    0.423515   -0.476262
S        -0.357362   -1.199621   -0.692778
O         0.105650   -1.785441    0.753468
C         1.488244   -1.662821    1.143176
C         1.798075   -0.289752    1.722751
H         2.118603   -1.904571    0.287325
H         1.614731   -2.432479    1.902344
C         1.710881    0.861851    0.745054
H         2.818090   -0.333529    2.126472
H         1.133973   -0.114083    2.572148
H         0.588273    0.770013    0.144312
C         2.730513    0.921076   -0.368441
H         1.595770    1.822492    1.251232
C        -1.740021    0.969792    0.257336
C        -2.069747    0.249676    1.565585
C        -1.393873    2.433503    0.537169
C        -2.937994    0.921560   -0.701985
H        -3.784045    1.435386   -0.240136
H        -3.225430   -0.104025   -0.922778
H        -2.691505    1.424818   -1.637870
H        -2.337670   -0.792284    1.394753
H        -2.916393    0.746039    2.044109
H        -1.225956    0.278938    2.256545
H        -2.269839    2.944830    0.938993
H        -0.590091    2.520977    1.269444
H        -1.086863    2.937976   -0.380049
O         0.766232   -1.356198   -1.586809
O        -1.623258   -1.834031   -0.951621
C         2.464806    2.057885   -1.348669
H         2.748266   -0.026703   -0.909687
H         3.721406    1.043837    0.090442
H         3.236877    2.099927   -2.118384
H         1.502952    1.915279   -1.844144
H         2.446305    3.025224   -0.838950
