24
0 1
S        -2.965708   -0.392257   -0.297509
C        -1.405753   -1.056978    0.356953
C        -3.023551    1.244802    0.481841
C        -0.203604   -0.766945   -0.520549
H        -1.531435   -2.138204    0.412944
H        -1.240626   -0.681832    1.366132
C         0.309180    0.663811   -0.528120
O         0.898881   -1.565668   -0.057066
H        -0.437369   -1.054905   -1.551647
C         2.125156   -0.856156   -0.146648
C         1.781929    0.456216   -0.888622
O         2.589289    1.533368   -0.488777
H         1.877494    0.309150   -1.967586
O         0.216363    1.228562    0.767572
H        -0.222504    1.280175   -1.258414
N         2.717654   -0.559796    1.132717
H         2.835982   -1.462570   -0.711027
H         0.848745    1.958690    0.785577
H         3.137038    1.191113    0.238943
H         2.004212   -0.251573    1.786206
H         3.196450   -1.361200    1.521256
H        -3.954131    1.706269    0.152854
H        -2.183797    1.868300    0.185623
H        -3.038723    1.152688    1.567290
