26
0 1
C         1.611647    0.479412    0.760956
C         0.601292   -0.674827    0.682342
C        -0.844876   -0.250696    0.950770
C        -1.282299    1.037357    0.215349
C         1.114008    1.692473    0.023105
C        -0.165190    1.920054   -0.242684
C         0.918481   -1.257945   -0.703263
C         2.818823   -0.150725    0.075009
O         2.290686   -0.971432   -0.961004
H         0.313590   -0.799204   -1.489943
H         0.772721   -2.339384   -0.744946
H         3.391744   -0.764139    0.781190
H         3.492751    0.580585   -0.375198
C        -1.904436   -1.284687    0.502381
O        -2.874610   -0.585713   -0.267739
C        -2.217892    0.510196   -0.875779
H        -1.453199   -2.076684   -0.105513
H        -2.426604   -1.753567    1.336165
H        -1.654123    0.187636   -1.761146
H        -2.977887    1.226249   -1.187989
H        -0.444799    2.814728   -0.791967
H         1.864124    2.402125   -0.313662
H         1.853387    0.741369    1.796030
H         0.881677   -1.423013    1.430585
H        -1.907583    1.617974    0.901626
H        -0.931752   -0.081189    2.025601
