28
0 1
C         0.218208   -0.792242   -0.000008
C        -1.215595   -0.326581   -0.000001
C        -2.234897   -1.275950    0.000003
C        -1.547628    1.021356   -0.000001
C        -3.564508   -0.885686    0.000003
H        -1.984904   -2.332418    0.000005
C        -2.881365    1.413393    0.000000
H        -0.753740    1.755268   -0.000001
C        -3.892667    0.464917    0.000002
H        -4.346871   -1.635370    0.000006
H        -3.128897    2.468487    0.000000
O         1.079575    0.317844    0.000040
C         2.495237    0.078628    0.000001
H        -4.931247    0.773105    0.000003
C         3.091043    1.479397    0.000101
H         2.761136    2.026473    0.884681
H         4.181853    1.437099    0.000080
H         2.761107    2.026612   -0.884382
C         2.918525   -0.675785   -1.259475
H         2.549223   -1.702770   -1.266631
H         2.544124   -0.164823   -2.148630
H         4.007710   -0.719502   -1.320412
C         2.918563   -0.675982    1.259347
H         2.544186   -0.165161    2.148594
H         2.549263   -1.702969    1.266351
H         4.007750   -0.719705    1.320245
H         0.386599   -1.419967    0.883895
H         0.386611   -1.419901   -0.883956
