20
-1 1
C        -1.784944    1.588583   -0.066194
C        -2.354329    0.192346    0.067273
O        -3.504459   -0.040566   -0.260647
C        -1.419416   -0.865517    0.569164
C        -0.368214   -1.205468   -0.512123
C         0.921067   -0.850920   -0.552108
C         1.475432   -0.017642    0.542310
O         2.922424    0.008802    0.620469
C         3.516444    0.490326   -0.552641
H        -2.511419    2.242011   -0.548043
H        -1.536708    1.980313    0.924933
H        -0.859334    1.550215   -0.641421
H         1.151075    1.036688    0.442048
H         1.194059   -0.351127    1.554425
H         4.599211    0.391140   -0.437421
H         3.168339   -0.076539   -1.421595
H         3.274863    1.556276   -0.714546
H        -0.804194   -1.816547   -1.307097
H        -2.020090   -1.743294    0.823837
H        -0.915757   -0.505266    1.472213
