22
1 1
C         2.608719   -0.256896    0.000005
O         3.647262    0.493039    0.000075
C         4.976858   -0.082711    0.000047
H         4.916778   -1.170782   -0.000065
H         5.478135    0.280966    0.893258
C         1.336225    0.282131    0.000034
H         1.233206    1.359014    0.000117
C         0.259753   -0.574847   -0.000043
H         0.478899   -1.640644   -0.000123
H         5.478173    0.281146   -0.893070
C        -1.121252   -0.236948   -0.000030
C        -1.579169    1.096440    0.000068
C        -2.061258   -1.285662   -0.000120
C        -2.929517    1.361292    0.000075
H        -0.875682    1.918704    0.000138
C        -3.413652   -1.013148   -0.000112
H        -1.714197   -2.312457   -0.000196
C        -3.845532    0.308519   -0.000014
H        -3.282466    2.384210    0.000151
H        -4.133126   -1.821239   -0.000181
H        -4.906914    0.525072   -0.000008
H         2.762049   -1.337336   -0.000076
