22
0 1
C        -3.399985   -1.252621   -0.000137
H        -3.173227   -1.852276   -0.887500
H        -4.466861   -1.043790   -0.000301
N        -2.671396    0.000000   -0.000017
C        -1.305559    0.000000   -0.000009
C        -0.576286   -1.208731   -0.000022
C        -0.576286    1.208730    0.000013
C         0.800991   -1.205486   -0.000015
H        -1.091283   -2.157351   -0.000026
C         0.800991    1.205486    0.000018
H        -1.091283    2.157351    0.000016
C         1.486844    0.000000    0.000004
H         1.358055   -2.131769   -0.000019
H         1.358055    2.131769    0.000028
H        -3.173494   -1.852316    0.887270
C        -3.399985    1.252621    0.000129
N         2.941848    0.000000    0.000011
O         3.513507   -1.077405    0.000038
O         3.513506    1.077405   -0.000016
H        -4.466861    1.043791    0.000260
H        -3.173474    1.852343   -0.887255
H        -3.173246    1.852249    0.887514
