52
0 1
C        -0.114498   -2.591609   -0.405885
H        -0.581837   -3.319622   -1.091710
C         0.929545   -1.795482   -1.152948
C        -0.313455    0.325631   -0.823835
H        -0.425665    1.037071   -0.005703
H        -0.371172    0.889338   -1.759071
C        -1.488154   -0.667728   -0.749526
H        -1.644391   -1.111516   -1.750025
N        -1.107792   -1.714065    0.194347
C         2.147976    0.222862   -0.301657
C         1.630259   -2.313245   -2.153148
C         3.406863   -0.529183   -0.086710
C         3.559525   -1.505675    0.800924
C         1.026817   -0.376281   -0.730791
C         4.832207   -2.253863    1.039887
H         5.145018   -2.185651    2.086031
H         4.707995   -3.318003    0.815585
H         5.641878   -1.869960    0.416268
C        -2.220287   -2.452407    0.753864
H        -2.823435   -2.938203   -0.035327
H        -1.816906   -3.247408    1.385649
C        -2.768984    0.043506   -0.369275
C        -3.520986   -0.337251    0.740425
C        -3.091006   -1.517028    1.570576
H        -2.521400   -1.174334    2.439874
H        -3.970161   -2.047309    1.945055
H         0.368476   -3.158673    0.397343
C        -4.680845    0.369843    1.053536
H        -5.264468    0.065678    1.916087
C        -3.207194    1.110339   -1.154075
H        -2.636870    1.397688   -2.030188
C        -5.099759    1.438615    0.281096
H        -6.004446    1.975572    0.539521
C        -4.359210    1.807529   -0.835594
H        -4.682016    2.633574   -1.457669
Si         2.237709    2.044836    0.214318
C         1.530110    2.214180    1.946747
H         2.073260    1.570558    2.642962
H         1.612301    3.243510    2.306308
H         0.476871    1.928297    1.986611
C         4.046117    2.555237    0.244481
H         4.505812    2.471109   -0.743757
H         4.136918    3.597440    0.561945
H         4.626935    1.942399    0.936579
C         1.343035    3.202308   -0.969602
H         1.610270    2.988212   -2.007565
H         0.257597    3.144007   -0.882866
H         1.635473    4.235174   -0.760631
H         2.384393   -1.733033   -2.669198
H         1.480445   -3.337952   -2.475913
H         2.698433   -1.801241    1.396770
H         4.278853   -0.207773   -0.654774
