35
0 1
C        -4.754364   -1.590978   -0.279232
C        -3.385422   -1.735821   -0.135579
C        -2.558046   -0.625550    0.016816
C        -3.117375    0.649953    0.028504
C        -4.496749    0.787226   -0.115669
C        -5.314496   -0.318960   -0.269580
H        -5.383232   -2.464639   -0.400381
H        -2.944950   -2.727680   -0.145122
H        -4.931033    1.781472   -0.103853
H        -6.384711   -0.192463   -0.380064
C        -0.879756    1.486876    0.760830
H        -0.203145    2.336945    0.722328
H        -0.984167    1.204344    1.822175
N        -0.315000    0.377687    0.000509
C         1.090289    0.258901   -0.016582
C         1.869489    1.353830   -0.421667
C         1.756121   -0.916748    0.307693
C         3.242095    1.275309   -0.476656
H         1.381566    2.272278   -0.722759
C         3.147444   -1.009389    0.236114
H         1.205243   -1.789986    0.627093
C         3.897662    0.088027   -0.147466
H         3.836139    2.122753   -0.794915
H         3.619072   -1.947273    0.493862
C        -2.234463    1.861065    0.185930
H        -2.086909    2.331813   -0.791208
H        -2.723066    2.597418    0.829791
C        -1.073324   -0.839504    0.192774
O         5.257492    0.108913   -0.243262
C         5.960074   -1.071289    0.076242
H         7.014675   -0.843912   -0.063293
H         5.789494   -1.368988    1.116001
H         5.677853   -1.896144   -0.586205
H        -0.732620   -1.580753   -0.532890
H        -0.900226   -1.267995    1.197141
