24
0 1
C        -2.175398   -1.198349   -0.402162
C        -3.544157   -1.092293   -0.214017
C        -4.109364    0.121710    0.158172
C        -3.288391    1.225240    0.351229
C        -1.915264    1.111979    0.193798
C        -1.330898   -0.104889   -0.180432
H        -1.737402   -2.135495   -0.724833
H        -4.177663   -1.956974   -0.375422
H        -5.181557    0.209001    0.286636
H        -3.720483    2.179079    0.632133
H        -1.279245    1.976168    0.347310
C         0.111113   -0.242377   -0.379767
C         1.005383    0.214487    0.526270
H         0.827599    0.675176    1.496246
H         1.582868   -0.664949   -1.264718
P         2.570685   -0.125993   -0.215875
C         3.658201   -1.220939    0.765284
H         3.929513   -0.748502    1.711300
H         3.126646   -2.148853    0.974714
H         4.568881   -1.447660    0.209028
C         3.601813    1.350644   -0.528986
H         3.034750    2.052470   -1.140033
H         3.874362    1.838783    0.408587
H         4.513232    1.070358   -1.059160
