40
1 1
C         3.320881   -0.184707   -0.607514
C         2.239312   -1.232337   -0.824063
C         1.034574   -1.086251    0.183668
H         1.849837   -1.156193   -1.843427
H         2.618895   -2.249035   -0.704575
C         1.502063   -1.421026    1.615165
H         1.758268   -2.480138    1.651991
H         0.708684   -1.244354    2.342949
H         2.378274   -0.856923    1.924778
C         0.638330    0.332218    0.030997
C         1.570137    1.386409    0.431904
C         2.731114    1.215000   -0.633637
H         4.069213   -0.276503   -1.397990
H         3.847667   -0.355095    0.333641
C         1.046702    2.814894    0.463075
C        -0.112764   -2.014314   -0.232744
C        -1.441256   -1.619637    0.423646
H         0.147571   -3.042448    0.021242
H        -0.221962   -1.993586   -1.320267
C        -0.644686    0.601897   -0.579536
C        -1.685667   -0.095047    0.398632
H        -0.735725    0.086531   -1.540053
H        -0.868123    1.656675   -0.702186
H        -1.469643   -1.961208    1.458983
H        -2.252806   -2.137854   -0.086585
C        -3.081500    0.309831   -0.015057
H        -1.514996    0.314670    1.396214
C        -3.878560    0.909444    0.861576
H        -3.549823    1.141059    1.868124
H        -4.896137    1.178922    0.606359
C        -3.507389   -0.001365   -1.420911
H        -3.343818   -1.051179   -1.677575
H        -2.954923    0.599726   -2.149954
H        -4.565648    0.213355   -1.560171
H         2.336870    1.454141   -1.625750
H         3.469522    1.980391   -0.390825
H         0.188073    2.918645    1.128344
H         0.761550    3.168547   -0.528929
H         1.830648    3.475888    0.832869
H         2.020781    1.125912    1.391593
