62
1 1
C        -1.311997   -0.251047   -0.887417
C        -1.780696   -1.117702    1.576842
C        -3.237657   -1.324383    1.143524
C        -3.678605   -0.367264    0.051566
C        -2.785659   -0.555813   -1.169604
H        -3.353812   -2.353665    0.787683
H        -3.866658   -1.213440    2.029208
H        -3.599016    0.665333    0.394581
H        -2.882782   -1.586849   -1.523446
H        -3.120177    0.104997   -1.969349
N        -0.926442   -0.970557    0.361842
O         0.302591   -1.265431    0.506133
C        -0.443967   -0.779014   -2.026687
H        -0.813307   -0.360659   -2.963287
H         0.599170   -0.486626   -1.914004
H        -0.499336   -1.866544   -2.091540
C        -1.082519    1.261371   -0.728990
H        -0.046598    1.475465   -0.472081
H        -1.299215    1.738839   -1.685172
H        -1.732971    1.715796    0.014361
C        -1.301234   -2.344677    2.350356
H        -0.310163   -2.200051    2.777313
H        -1.998857   -2.534855    3.166691
H        -1.274745   -3.225584    1.708082
C        -1.630648    0.136024    2.454231
H        -2.122326   -0.046707    3.410471
H        -0.580703    0.345555    2.662885
H        -2.077969    1.020725    2.006918
C         2.145280    0.104021    1.499821
H         1.794386    0.162285    2.529011
H         1.005349   -0.414412    0.963008
C         2.237249    1.395472    0.817611
C         2.713668    1.596391   -0.487265
C         1.726305    2.490222    1.532525
C         2.707575    2.866110   -1.033179
H         3.080230    0.770093   -1.076240
C         1.724008    3.756451    0.977486
H         1.348905    2.345698    2.538257
C         2.217506    3.946546   -0.306608
H         3.083337    3.015913   -2.037234
H         1.342521    4.594899    1.545764
O         2.993689   -0.925117    1.403819
H         2.216638    4.936607   -0.745248
C         3.794352   -1.144436    0.272436
C         3.284073   -1.880309   -0.780795
C         5.090328   -0.667050    0.286988
C         4.100430   -2.110425   -1.879931
H         2.272221   -2.260160   -0.733284
C         5.894811   -0.907377   -0.818412
H         5.455610   -0.116695    1.144282
C         5.399971   -1.620494   -1.902419
H         3.721692   -2.684102   -2.716419
H         6.912942   -0.539711   -0.827914
H         6.032822   -1.806993   -2.760564
N        -5.075795   -0.565191   -0.272606
C        -5.781388    0.431601   -0.886485
C        -7.223685    0.136845   -1.200640
H        -7.541781   -0.858539   -0.890000
H        -7.845770    0.882694   -0.705263
H        -7.376878    0.244910   -2.274709
O        -5.254226    1.495556   -1.151805
H        -5.508529   -1.460422   -0.112310
