25
0 1
C        -1.685171   -1.585303   -0.092372
C        -3.019038   -0.893582    0.258797
C        -2.840558    0.577517   -0.172046
C        -1.348983    0.777654   -0.070734
C        -0.693283   -0.453923   -0.035275
H        -1.438863   -2.405088    0.584947
H        -1.709814   -2.003423   -1.105147
H        -3.167638   -0.934376    1.340627
H        -3.880082   -1.371457   -0.209292
H        -3.170065    0.723492   -1.206583
H        -3.411944    1.270305    0.447938
C         0.683817   -0.458684    0.024278
C        -0.608551    1.945235   -0.029798
C         1.678295   -1.585757    0.090354
H         1.448150   -2.404097   -0.594902
C         3.015904   -0.887311   -0.245757
H         3.183083   -0.940538   -1.324323
H         3.869558   -1.359268    0.241194
C         2.825787    0.585610    0.164840
H         3.145923    0.758305    1.198133
H         3.374359    1.287604   -0.463553
C         1.334568    0.777640    0.063971
N         0.727983    1.954039    0.043482
H         1.698390   -2.011143    1.100331
H        -1.093660    2.916842   -0.051293
