24
0 1
C         1.566800   -0.228769   -0.139568
N         1.221477   -0.697890    1.092994
N         0.020614   -1.127784    1.226387
C        -0.772662   -1.101652    0.124606
N        -0.207094   -1.224856   -1.110602
N         0.988388   -0.791635   -1.247304
C         0.351828    1.556272   -0.149162
C        -0.939501    1.233490   -0.059564
C        -0.321788    1.825159    1.163921
H         1.001694    2.073957   -0.834188
H        -0.577166    2.848570    1.439342
H        -0.079693    1.181777    2.005378
C        -2.179783   -1.571790    0.295555
H        -2.745963   -1.426013   -0.621763
H        -2.175967   -2.638279    0.530050
H        -2.661264   -1.049487    1.121686
C         2.952628    0.311914   -0.291788
H         3.170332    1.021204    0.505488
H         3.672625   -0.506325   -0.229227
H         3.065733    0.793555   -1.262019
C        -2.201041    1.363792   -0.827908
H        -2.105877    0.918631   -1.818687
H        -3.049977    0.917342   -0.312235
H        -2.417059    2.429713   -0.950697
