52
0 1
C         0.135774   -2.358284   -0.449993
H        -0.227450   -2.944753   -1.314959
C         1.254932   -1.441691   -0.885563
C        -0.231289    0.523174   -0.612949
H        -0.410239    1.093656    0.297400
H        -0.344500    1.212395   -1.450293
C        -1.331639   -0.537186   -0.710317
H        -1.382067   -0.903398   -1.754548
N        -0.959288   -1.640007    0.165089
C         2.282751    0.652418   -0.140017
C         2.423061   -2.007484   -1.361153
H         2.923582   -1.492721   -2.163489
H         2.516113   -3.090597   -1.392965
C         3.415123   -0.036838    0.337766
C         4.041720   -1.186072   -0.121360
C         1.166123   -0.064962   -0.632971
H         4.441540   -1.184232   -1.119833
H         3.752124    0.306434    1.315712
C         4.829312   -2.044313    0.836086
H         4.781844   -3.094699    0.541354
H         5.887780   -1.762854    0.843968
H         4.444420   -1.967648    1.854225
C        -2.062791   -2.515142    0.504922
H        -2.543493   -2.930875   -0.400097
H        -1.667611   -3.357673    1.077046
C        -2.684232    0.058405   -0.376117
C        -3.507851   -0.497898    0.601538
C        -3.079244   -1.746070    1.326236
H        -2.628738   -1.483096    2.288213
H        -3.951209   -2.371257    1.534366
H         0.541714   -3.075360    0.272334
C        -4.736984    0.097779    0.879532
H        -5.373892   -0.342981    1.639344
C        -3.124486    1.184568   -1.071862
H        -2.501573    1.609028   -1.850709
C        -5.157463    1.226822    0.199084
H        -6.116714    1.675200    0.428052
C        -4.346436    1.769874   -0.789860
H        -4.668065    2.644709   -1.341995
C         2.214629    2.141957    0.300256
C         1.674614    2.259975    1.734985
H         0.669809    1.847836    1.831036
H         2.318052    1.728389    2.439322
H         1.639182    3.309424    2.040627
C         1.378541    3.022489   -0.647727
H         1.576454    2.774455   -1.693273
H         0.309015    2.951266   -0.472736
H         1.655823    4.068352   -0.498689
C         3.631312    2.750420    0.267679
H         4.054704    2.691328   -0.737644
H         4.321923    2.254568    0.948166
H         3.583618    3.803500    0.555283
