13
0 1
S         1.890726    0.000000   -0.542786
C         0.154917    0.000000   -0.242244
C        -0.532581    1.208642   -0.134014
C        -1.901143    1.205659    0.083679
C        -2.582590    0.000000    0.192611
C        -1.901143   -1.205660    0.083678
C        -0.532580   -1.208641   -0.134015
H        -2.437001    2.142895    0.168165
H        -3.652707    0.000000    0.361736
H         0.013077    2.139375   -0.221273
H         0.013078   -2.139375   -0.221274
H        -2.437000   -2.142895    0.168164
F         2.446629   -0.000001    1.036765
