59
0 1
C        -0.345850   -0.788419   -0.293527
C         0.011345    1.420606    0.630455
C        -1.708560   -1.092058   -0.166318
H         0.019356   -0.431463   -1.246394
C         0.649269   -1.367086    0.582305
C        -1.101128    2.009709    0.036840
C         1.419381    1.820550    0.461986
H        -0.161124    0.858959    1.531541
C        -2.369453    1.462676    0.232478
C        -2.702379    0.321664    0.979070
C        -4.149405   -0.151825    0.897117
C        -2.122983    0.090751    2.371361
C        -2.512293   -1.137110   -1.449710
H        -1.943648   -1.861584    0.565178
H        -2.912709   -0.290223    3.022334
H        -1.309208   -0.633411    2.399858
H        -1.769553    1.027626    2.806631
C        -4.750199   -0.326558   -0.495926
H        -4.764989    0.541432    1.484262
H        -4.219384   -1.115834    1.413804
C        -4.002156   -1.405701   -1.274011
H        -2.357638   -0.201676   -1.996778
H        -2.086292   -1.924595   -2.080404
C        -6.235476   -0.661156   -0.391586
H        -4.659955    0.614512   -1.049954
H        -4.460951   -1.521386   -2.260729
H        -4.136043   -2.365709   -0.758653
C        -0.983780    3.127132   -0.972848
H        -3.142070    1.852463   -0.423823
H        -0.157981    3.798077   -0.736853
H        -0.813626    2.746902   -1.984116
H        -1.906844    3.708117   -0.994202
H        -6.385196   -1.593179    0.161933
H        -6.785142    0.126706    0.129190
H        -6.682700   -0.786841   -1.380444
C         2.186908    1.862973    1.758699
H         1.755973    2.603443    2.438549
H         2.123246    0.894364    2.262492
H         3.239187    2.104731    1.622587
C         1.950983    2.066549   -0.739096
C         3.355110    2.457720   -1.066912
H         3.365954    3.381057   -1.653912
H         3.978440    2.616100   -0.188066
H         3.824328    1.687614   -1.686213
H         1.314163    1.927204   -1.605014
C         2.064997   -1.392706    0.100328
O         0.412075   -1.823723    1.697182
C         3.094895   -1.724242    0.877802
C         2.589450   -1.086015   -1.272441
H         3.018700   -1.998502    1.921120
C         4.394638   -1.653421    0.136568
N         3.948221   -1.217900   -1.171118
H         4.534853   -1.172642   -1.988185
O         1.987952   -0.789136   -2.283900
C         5.405826   -0.704129    0.773048
H         6.313737   -0.647004    0.169557
H         5.683214   -1.053946    1.769396
H         4.981023    0.296799    0.857079
H         4.830281   -2.659370    0.075702
