14
-1 1
C         1.799057   -1.269950   -0.000009
N         2.724320   -0.298056   -0.000013
C         2.235834    0.945000   -0.000010
C         0.892149    1.262946   -0.000004
C        -0.084233    0.245036    0.000001
C         0.437018   -1.068633   -0.000003
C        -1.479242    0.552141    0.000007
N        -2.385330   -0.406119    0.000010
O        -3.608347   -0.064911    0.000019
H         2.974890    1.744091   -0.000013
H         0.585842    2.303617   -0.000002
H        -0.248308   -1.905481   -0.000001
H         2.187718   -2.286193   -0.000012
H        -1.809791    1.593232    0.000008
