46
1 1
S         3.258012   -1.901496   -0.247256
C         3.296130   -2.328308    1.511134
H         2.390930   -2.013626    2.028249
H         3.391190   -3.411150    1.571964
H         4.169948   -1.874280    1.976335
C         3.380857   -0.086250   -0.235749
C         1.016170   -2.420872   -0.918776
H         0.775748   -2.665408    0.103026
H         1.401154   -3.193165   -1.564722
H         0.941149   -1.406351   -1.278486
N        -0.918152   -2.765224   -1.427091
C        -1.724530   -2.098564   -0.476851
N        -1.974877   -2.740135    0.649856
C        -2.703755   -2.115795    1.588836
N        -3.212817   -0.894932    1.520027
C        -2.931689   -0.275086    0.383579
C        -2.171274   -0.802102   -0.667979
N        -2.047647    0.118250   -1.686708
C        -2.728411    1.151304   -1.256147
N        -3.293738    0.978491   -0.026787
H        -2.843749    2.078338   -1.797558
C        -3.985841    1.981630    0.769915
H        -4.478296    1.475097    1.596677
H        -4.732926    2.485444    0.159263
H        -3.265098    2.703271    1.153812
H        -1.064171   -3.770237   -1.377981
H        -1.058943   -2.415224   -2.371532
C         2.411925    0.686230    0.644629
H         3.260056    0.215214   -1.274947
H         4.397459    0.159762    0.071433
C         0.949646    0.713823    0.210306
C         0.507175    2.078928    0.751822
C         1.757460    2.952870    0.521589
O         2.854778    2.044397    0.619360
N         1.653769    3.625506   -0.740351
H         1.875901    3.705257    1.300962
O        -0.629879    2.595701    0.118243
H         0.314105    1.986723    1.824023
O         0.876382    0.662712   -1.201329
H         0.374963   -0.103537    0.658749
H        -0.045849    0.796130   -1.476606
H        -0.292754    3.305699   -0.460199
H         2.465981    0.323579    1.676839
H         2.270570    4.423465   -0.812103
H         1.819593    2.994015   -1.516807
H        -2.894345   -2.678082    2.495050
