22
0 1
C         0.501536   -1.147049    0.407105
C         0.222844   -0.517003    1.737293
C         0.921261    1.198871    0.322218
C         0.451546    0.798490    1.686007
S         2.098734   -0.238463    0.024082
O         2.408845   -0.347273   -1.434732
C        -2.465033    0.672417    0.017792
C        -0.437570   -0.576487   -0.680684
C        -0.135614    0.934899   -0.769005
H        -2.510155    0.758161    1.107418
H        -3.486644    0.754818   -0.353407
C        -1.482085    1.676613   -0.593884
H        -1.374942    2.576135    0.014195
H        -1.841777    1.999224   -1.572308
C        -1.901954   -0.704330   -0.281833
O        -2.501687   -1.742751   -0.196691
H         0.342015    1.490932    2.509647
H        -0.110705   -1.072761    2.602777
H        -0.261358   -1.096845   -1.622349
H         0.614136   -2.226790    0.391420
H         0.321158    1.172953   -1.728368
H         1.421692    2.161239    0.246993
