25
0 1
C         1.494667    1.203247   -0.221412
C         1.011019   -0.091996   -0.133707
O        -0.652604   -1.476238   -0.969416
C        -1.312229    0.418535    0.091262
N        -0.395475   -0.387407   -0.352426
H         0.833670    2.019024   -0.483128
C         2.845921    1.435050   -0.003674
C         3.697246    0.379105    0.288147
H         4.751481    0.563497    0.454054
C         3.198821   -0.916539    0.350689
H         3.863280   -1.743890    0.566929
C         1.852763   -1.159404    0.130480
H         1.436809   -2.157155    0.145430
H         3.234211    2.443171   -0.078651
C        -2.754900    0.133107   -0.144083
H        -2.833228   -0.246384   -1.168187
C        -3.586736    1.404639    0.003392
H        -4.639202    1.197712   -0.198856
H        -3.258527    2.182811   -0.689473
H        -3.517934    1.803759    1.019767
C        -3.244576   -0.980089    0.792745
H        -3.190983   -0.660977    1.837089
H        -2.639406   -1.877324    0.664196
H        -4.283988   -1.230432    0.568677
H        -0.978999    1.274009    0.661429
