27
0 1
N        -0.639524    0.925629    0.173344
C        -1.998350    0.641576   -0.038168
C        -2.236238   -0.684882   -0.114106
S        -0.762178   -1.582332    0.096992
C         0.135332   -0.147299    0.268000
C        -2.979810    1.757142   -0.162538
H        -2.921658    2.438719    0.687852
H        -3.991179    1.359876   -0.203360
H        -2.814459    2.337965   -1.072766
C        -3.523643   -1.402910   -0.354770
H        -4.367559   -0.715806   -0.327423
H        -3.693877   -2.170250    0.402566
H        -3.522239   -1.892347   -1.331067
C        -0.153876    2.311987    0.268036
H        -0.293605    2.679568    1.284931
H        -0.725161    2.922825   -0.424956
H         0.888571    2.324813   -0.047905
C         1.608626   -0.278984    0.486439
C         2.116637    0.464962    1.717934
H         2.008545    1.542966    1.625900
H         3.177264    0.238748    1.823963
H         1.600176    0.114839    2.614370
O         1.844734   -1.656137    0.625396
C         2.380664    0.211051   -0.844587
O         2.257760    1.406102   -1.124684
O         2.995668   -0.718745   -1.377411
H         2.445363   -1.829632   -0.141235
