23
0 2
N        -0.461848    1.011770   -0.267501
H         0.522059    0.949599   -0.034495
C        -1.165155   -0.193404   -0.681548
H        -1.845775    0.100144   -1.488238
C        -0.197727   -1.229519   -1.227240
C        -2.044007   -0.803540    0.428985
H        -0.757935   -2.097743   -1.567518
H         0.344136   -0.820079   -2.080522
S         1.022884   -1.844711   -0.026759
O        -1.924639   -1.966815    0.760190
H         2.151526   -0.922688   -0.445558
N        -2.954186    0.041197    0.953222
H        -3.074828    0.974304    0.575066
H        -3.583079   -0.316583    1.654015
C        -1.034243    2.226629   -0.254776
H        -0.325350    3.035149   -0.020333
O        -2.215917    2.440849   -0.469682
O         2.896485    0.043737   -0.758317
O         2.568129    1.066541    0.074630
C         3.297289    0.955798    1.300109
H         3.053760    1.857243    1.860034
H         2.967893    0.067254    1.842033
H         4.364286    0.907733    1.085872
