21
0 2
C         0.133250   -0.371573    0.250681
C         1.144215   -1.486638   -0.099525
C         2.170155   -0.399295   -0.473692
H         0.827819   -2.064532   -0.968893
H         1.399409   -2.171639    0.709499
C         1.013967    0.632272   -0.606145
H         2.774855   -0.560967   -1.365517
H         2.832462   -0.150316    0.356930
S        -1.528844   -0.722882   -0.402102
C        -2.358168    0.864129   -0.125846
H        -3.324771    0.805380   -0.624551
H        -1.786135    1.680786   -0.566869
H        -2.523166    1.059102    0.932838
C         0.118507   -0.052584    1.736424
H        -0.339540   -0.873947    2.289831
H        -0.435873    0.862706    1.948671
H         1.135521    0.087564    2.112257
C         1.224305    2.013494   -0.152659
H         0.883293    2.860889   -0.732829
H         1.711977    2.216665    0.793262
H         0.628271    0.615591   -1.626420
