14
0 2
C        -1.324764   -0.871902   -0.068585
H        -0.116702   -1.277127   -0.021726
H        -1.606203   -1.105432   -1.094667
H        -1.875561   -1.464953    0.658718
C        -1.169531    0.598608    0.234373
H        -2.000194    1.170484   -0.194290
C         1.294533    0.252562    0.230088
H         2.246596    0.557722   -0.220312
O         1.117265   -1.099527   -0.088291
H        -1.193284    0.764867    1.315166
H         1.370868    0.396527    1.317627
C         0.159377    1.112811   -0.325473
H         0.320518    2.160630   -0.059398
H         0.158153    1.041028   -1.417212
