38
0 1
C        -0.034324   -1.010743   -0.775456
C        -2.263689   -0.731982    0.097381
C         0.427816    0.075260   -0.018041
H         0.124582    0.068704    1.022531
C        -2.232378    0.688608    0.032345
C        -3.678467    1.138138    0.033077
C        -1.293806   -1.518049   -0.520080
H        -1.609789   -2.470198   -0.936478
H         0.544440   -1.383594   -1.610931
C        -3.652207   -1.150873    0.261253
C         1.705790    0.782420   -0.279915
C         1.877737    2.039324    0.582492
H         1.890977    1.786860    1.646341
H         1.064859    2.747228    0.431556
H         1.770271    1.041596   -1.342940
H         2.811780    2.552906    0.353458
N        -1.188348    1.430587   -0.094211
C        -1.299390    2.794302   -0.571164
H        -1.180923    3.500132    0.256574
H        -0.492433    2.985370   -1.281312
H        -2.244249    3.008171   -1.080576
O        -4.124657   -2.248088    0.337180
O        -4.445645   -0.024339    0.311194
H        -3.976994    1.541823   -0.938388
H        -3.875351    1.886072    0.803556
Si        3.180534   -0.417506    0.048196
C         3.286188   -1.755996   -1.261545
C         4.760728    0.595842   -0.013255
C         2.971640   -1.189560    1.743261
H         4.235826   -2.288636   -1.161435
H         2.486307   -2.490970   -1.166421
H         3.250165   -1.340974   -2.272041
H         4.849226    1.147233   -0.953086
H         4.824026    1.315008    0.805396
H         5.628635   -0.064562    0.061697
H         2.911644   -0.434317    2.530473
H         2.066629   -1.799420    1.791251
H         3.819913   -1.838192    1.976392
