18
0 2
N        -0.254725    0.601302   -0.238062
C        -1.044349   -0.455355    0.104983
C        -0.162277   -1.690337    0.158865
C         1.128822   -1.265313   -0.537360
H        -0.667428   -2.533086   -0.309893
H        -0.006642   -1.942967    1.210868
C         1.161190    0.280141   -0.361715
H         1.077288   -1.497493   -1.602659
H         2.022447   -1.735797   -0.130440
C         1.954023    0.735575    0.813547
O        -2.233292   -0.402322    0.340484
C        -0.742158    1.958527   -0.279253
H        -1.822256    1.929412   -0.147214
H        -0.507562    2.421962   -1.241218
H        -0.299954    2.563650    0.517220
H         3.021961    0.889453    0.726916
H         1.496820    0.790877    1.793818
H         1.563221    0.744024   -1.269235
