12
0 1
  C      0.000000    1.191371    0.693954
  C      0.000000    0.000000    1.397434
  C      0.000000   -1.191371    0.693954
  C      0.000000   -1.191371   -0.693954
  C      0.000000    0.000000   -1.397434
  C      0.000000    1.191371   -0.693954
  F      0.000000    2.357926    1.354335
  H      0.000000    0.000000    2.477199
  F      0.000000   -2.357926    1.354335
  F      0.000000   -2.357926   -1.354335
  H      0.000000    0.000000   -2.477199
  F      0.000000    2.357926   -1.354335
