8
0 1
  S      0.104910   -0.330209    1.416746
  S      0.104910   -0.330209   -1.416746
  N     -0.487995   -1.151970    0.000000
  C      0.104910    1.282613    0.665107
  C      0.104910    1.282613   -0.665107
  H      0.150997    2.157376    1.295596
  H      0.150997    2.157376   -1.295596
  H     -1.502056   -1.075624    0.000000
