11
0 1
  O      0.000000    0.687878    0.000070
  N     -0.688992   -1.412640   -0.000142
  N      0.688992   -1.412640   -0.000140
  C     -1.060811   -0.167259   -0.000017
  C      1.060811   -0.167259   -0.000015
  C     -2.366481    0.358061    0.000033
  C      2.366481    0.358061    0.000038
  C     -3.480741    0.800640    0.000075
  C      3.480741    0.800640    0.000084
  H     -4.469667    1.188310    0.000112
  H      4.469667    1.188310    0.000122
