20
0 1
  C     -0.418466    0.644989    0.791107
  C     -0.418466    0.644989   -0.791107
  C      0.418466   -0.644989    0.791107
  C      0.418466    1.946235    0.777144
  C      0.418466   -0.644989   -0.791107
  C      0.418466    1.946235   -0.777144
  C     -0.418466   -1.946235   -0.777144
  C     -0.418466   -1.946235    0.777144
  H     -1.320254    0.645883    1.403108
  H     -1.320254    0.645883   -1.403108
  H      1.320254   -0.645883    1.403108
  H     -0.103896    2.800429    1.206129
  H      1.394828    1.871332    1.257928
  H      1.320254   -0.645883   -1.403108
  H      1.394828    1.871332   -1.257928
  H     -0.103896    2.800429   -1.206129
  H     -1.394828   -1.871332   -1.257928
  H      0.103896   -2.800429   -1.206129
  H      0.103896   -2.800429    1.206129
  H     -1.394828   -1.871332    1.257928
