16
0 1
  C      0.783809    0.783809    0.783809
  C     -0.783809    0.783809    0.783809
  C      0.783809    0.783809   -0.783809
  C     -0.783809    0.783809   -0.783809
  C      0.783809   -0.783809    0.783809
  C     -0.783809   -0.783809    0.783809
  C      0.783809   -0.783809   -0.783809
  C     -0.783809   -0.783809   -0.783809
  H      1.410999    1.410999    1.410999
  H     -1.410999    1.410999    1.410999
  H      1.410999    1.410999   -1.410999
  H     -1.410999    1.410999   -1.410999
  H      1.410999   -1.410999    1.410999
  H     -1.410999   -1.410999    1.410999
  H      1.410999   -1.410999   -1.410999
  H     -1.410999   -1.410999   -1.410999
