7
0 1
  C      0.000000    0.000000    0.828233
  C      0.000000    1.221205    0.021726
  C      0.000000   -1.221205    0.021726
  H      0.879349    0.000000    1.476388
  H     -0.879349    0.000000    1.476388
  N      0.000000    2.195867   -0.584492
  N      0.000000   -2.195867   -0.584492
