8
0 1
  C      0.000000    0.000000    0.778102
  C      0.000000    0.000000   -0.778102
  F      0.000000    1.254581    1.232191
  F     -1.086499   -0.627290    1.232191
  F      1.086499   -0.627291    1.232191
  F      0.000000   -1.254581   -1.232191
  F     -1.086499    0.627291   -1.232191
  F      1.086499    0.627290   -1.232191
