7
0 1
  C      0.000000    0.000000    0.529544
  O      0.000000    1.174198   -0.247524
  O      0.000000   -1.174198   -0.247524
  H     -0.891011   -0.071326    1.155757
  H      0.891011    0.071326    1.155757
  H     -0.812903    1.199741   -0.764202
  H      0.812903   -1.199741   -0.764202
