9
0 1
  C      0.000000    0.000000    0.000000
  C      0.856146    0.856146    0.856146
  C     -0.856146   -0.856146    0.856146
  C     -0.856146    0.856146   -0.856146
  C      0.856146   -0.856146   -0.856146
  N      1.518318    1.518318    1.518318
  N     -1.518318   -1.518318    1.518318
  N     -1.518318    1.518318   -1.518318
  N      1.518318   -1.518318   -1.518318
