7
0 1
  S      0.000000    0.000000    0.871858
  C      0.000000    0.738462   -0.803990
  C      0.000000   -0.738462   -0.803990
  H     -0.912020    1.251798   -1.075460
  H      0.912020    1.251798   -1.075460
  H      0.912020   -1.251798   -1.075460
  H     -0.912020   -1.251798   -1.075460
