26
0 1
H 3.7718900000 1.3831300000 1.0739600000
O 2.9021700000 1.6515500000 0.7254800000
C 2.3081200000 0.5648400000 0.1591000000
C 1.0359200000 0.7202500000 -0.4337300000
C 2.9326600000 -0.7012400000 0.1870800000
C 0.4727700000 2.0820300000 -0.4611100000
C 0.4349800000 -0.4329700000 -0.9923900000
N 2.3542500000 -1.7696800000 -0.3644000000
C 4.2738100000 -0.8754300000 0.8420500000
O -0.6979300000 2.3976800000 -0.6627400000
H 1.2195900000 2.8854400000 -0.2905300000
C 1.1515600000 -1.6272300000 -0.9379400000
C -0.9254300000 -0.4710200000 -1.6478100000
H 5.0487300000 -0.2394100000 0.3796000000
H 4.5873800000 -1.9195200000 0.7349400000
H 4.2377300000 -0.6390300000 1.9192200000
H 0.7201900000 -2.5304500000 -1.3795100000
O -1.9292600000 -1.0652500000 -0.7909300000
H -0.8859500000 -1.1392800000 -2.5183600000
H -1.2531600000 0.5216000000 -1.9828000000
P -2.3878300000 -0.2738700000 0.5461800000
O -2.9884100000 1.1100700000 0.0298700000
O -3.7140100000 -1.0998600000 0.8994100000
O -1.3660100000 -0.2005000000 1.6161900000
H -2.2334400000 1.7090300000 -0.2164000000
H -3.6339200000 -1.4406500000 1.8080100000
