26
0 1
H -2.2749900000 2.3564400000 0.1508600000
O -2.9286700000 1.6181000000 0.3944400000
C -2.3118100000 0.4788300000 0.0638800000
C -1.0111600000 0.4655600000 -0.5001400000
C -2.9884900000 -0.7513000000 0.2928400000
C -0.3383400000 1.7384700000 -0.7153000000
C -0.4347800000 -0.7902100000 -0.8230200000
N -2.4244900000 -1.9144200000 -0.0269100000
C -4.3574500000 -0.7464000000 0.8972300000
O -0.8534400000 2.8341600000 -0.4394000000
H 0.6813400000 1.7220000000 -1.1474800000
C -1.1920700000 -1.9269600000 -0.5701500000
C 0.9415200000 -0.9597700000 -1.4061700000
H -5.0597200000 -0.1716400000 0.2741600000
H -4.7140000000 -1.7769600000 0.9993200000
H -4.3500800000 -0.2572200000 1.8832700000
H -0.7878400000 -2.9137200000 -0.8163300000
O 1.9442000000 -1.2641200000 -0.3876600000
H 0.9546200000 -1.8430700000 -2.0573000000
H 1.2747800000 -0.0965300000 -1.9956300000
P 2.7580600000 -0.1756600000 0.4398300000
O 3.1491200000 0.8730300000 -0.7218900000
O 1.6821800000 0.6998100000 1.2794600000
O 3.8354200000 -0.7544500000 1.2583200000
H 3.7715300000 1.5474900000 -0.3957300000
H 1.6298300000 0.3675000000 2.1943400000
