41
0 1
H 6.7744500000 -1.8079100000 -0.3789900000
C 5.7272500000 -1.5355300000 -0.2558300000
C 4.7343100000 -2.2756100000 -0.9031700000
C 5.3400200000 -0.4617000000 0.5509500000
H 5.0182400000 -3.1193400000 -1.5390500000
N 3.4285400000 -2.0274300000 -0.8003300000
O 6.1838000000 0.3284900000 1.2589400000
C 3.9587800000 -0.1682300000 0.6581300000
C 3.0521500000 -0.9874100000 -0.0291100000
C 7.5802200000 0.0383700000 1.1762100000
O 3.5023400000 0.8236300000 1.4832300000
C 1.5857600000 -0.7100700000 0.0464400000
H 7.9484800000 0.1399300000 0.1427400000
H 7.7977300000 -0.9760700000 1.5466800000
H 8.0743700000 0.7765500000 1.8167500000
C 3.7636500000 2.1704900000 1.0328700000
S 1.0523300000 0.1662000000 -1.5079600000
H 0.9947600000 -1.6363900000 0.0451900000
H 1.3145900000 -0.0570300000 0.8837700000
C -0.6672200000 0.3190900000 -0.9950100000
O 1.5656200000 1.5835000000 -1.4652900000
N -1.5491900000 -0.6383300000 -0.8025000000
N -1.1611100000 1.5859600000 -0.8375900000
C -2.7161200000 0.0407800000 -0.4776600000
H -0.5914500000 2.4222400000 -0.9437500000
C -2.4939200000 1.4462400000 -0.4952500000
C -3.9860800000 -0.4740300000 -0.1766800000
C -3.5100600000 2.3621600000 -0.2154100000
H -4.1685800000 -1.5467800000 -0.2136900000
C -4.9845500000 0.4493500000 0.1188000000
H -3.3426200000 3.4393700000 -0.2329700000
C -4.7596100000 1.8415600000 0.0993800000
O -6.2915700000 0.0821600000 0.4337600000
H -5.5947700000 2.4993800000 0.3386900000
C -6.4846200000 -1.1597300000 0.9868000000
F -6.5912400000 -2.1248100000 0.0103600000
F -7.6732500000 -1.1216500000 1.6376300000
H -5.6788600000 -1.4574200000 1.6791800000
H 3.2300100000 2.3557900000 0.0882600000
H 4.8426800000 2.3427800000 0.9106100000
H 3.3752200000 2.8260400000 1.8212100000
