30
0 1
H -0.8631200000 2.3603900000 -0.0583700000
N -0.1877200000 1.6528500000 0.2338900000
N 0.0918900000 0.8464000000 -0.9163600000
H -0.6412100000 1.1032200000 0.9745500000
C 1.4963000000 0.3340200000 -0.9543100000
C -0.7232800000 -0.3893300000 -1.0054000000
H 1.7949600000 0.3491800000 -2.0143400000
C 2.4989400000 1.0917100000 -0.0815000000
C 1.4774400000 -1.1429000000 -0.4054600000
H -0.6274500000 -0.7342700000 -2.0529500000
C -2.2101200000 -0.1940700000 -0.7613600000
C -0.0061000000 -1.4056900000 -0.1010400000
H 3.4913600000 1.0393000000 -0.5580500000
H 2.2227400000 2.1465600000 0.0344400000
C 2.5195000000 0.3215200000 1.2460500000
H 1.8230800000 -1.8464600000 -1.1778000000
C 2.4270000000 -1.1494200000 0.8107700000
O -2.5044400000 -0.1569400000 0.6334600000
H -2.5463700000 0.7434700000 -1.2485900000
H -2.7679900000 -1.0294500000 -1.2292500000
C -3.8840400000 0.0543900000 0.8724700000
H -4.4988300000 -0.7493800000 0.4238600000
H -4.2249900000 1.0234000000 0.4596400000
H -4.0315800000 0.0543400000 1.9598600000
H -0.3105300000 -2.4448100000 -0.2929200000
H -0.2393000000 -1.1892500000 0.9534500000
H 1.6390700000 0.6052800000 1.8434000000
H 3.4108300000 0.5318300000 1.8547900000
H 3.4237600000 -1.5056100000 0.5046000000
H 2.0780000000 -1.8183500000 1.6120100000
