33
0 1
N -3.3495100000 1.1632800000 -1.0869800000
C -2.8606100000 0.1832500000 -0.6467500000
N -2.3491700000 -0.8648300000 -0.0448100000
C -1.1293800000 -1.2833000000 -0.3701300000
N -0.3680000000 -0.7127400000 -1.3388700000
N -0.6098800000 -2.3522600000 0.2915100000
C 0.8320200000 -1.2790400000 -1.9325400000
H -0.7273100000 0.1597000000 -1.7195200000
C -1.3618200000 -2.9881900000 1.3614500000
H 0.4050500000 -2.2827800000 0.4291000000
C 2.1614100000 -0.7067400000 -1.4270300000
H 0.7807300000 -1.1066100000 -3.0209400000
H 0.7998600000 -2.3685200000 -1.7853700000
S 2.4699900000 -0.9911200000 0.3504100000
H 2.9839900000 -1.1744100000 -1.9880700000
H 2.1992300000 0.3791400000 -1.5956500000
C 2.3320700000 0.7345100000 1.0392300000
C 1.1589200000 1.5067500000 0.5696400000
H 3.2608500000 1.2554400000 0.7745700000
H 2.3208200000 0.5746500000 2.1256800000
N 1.2185100000 2.2190800000 -0.6191500000
C -0.1138100000 1.5847400000 1.1170200000
C 0.0035700000 2.7096800000 -0.7969100000
N -0.8272600000 2.3673700000 0.2321300000
C -0.7086900000 1.0095400000 2.3536900000
H -0.3268900000 3.3203600000 -1.6323200000
H -1.8429200000 2.4690200000 0.2124900000
H -1.5940500000 0.3962700000 2.1252900000
H 0.0236600000 0.3659300000 2.8578000000
H -1.0133000000 1.7932000000 3.0651300000
H -2.3583200000 -3.2657300000 0.9993500000
H -0.8252700000 -3.8947500000 1.6670600000
H -1.4910000000 -2.3295700000 2.2359900000
