42
0 1
H 3.5923300000 2.0054800000 -0.2728400000
C 2.6404200000 1.4393600000 -0.2933300000
H 2.3455800000 1.3132100000 -1.3533200000
O 2.7819800000 0.1753100000 0.3399300000
C 1.5396400000 2.1832000000 0.4437500000
C 3.6696500000 -0.7031400000 -0.3382500000
H 0.6599700000 1.5266500000 0.5295000000
H 1.8674800000 2.4526900000 1.4667900000
O 1.2354100000 3.3586500000 -0.3058400000
H 3.4720200000 -0.6826600000 -1.4279300000
H 4.7238600000 -0.3928300000 -0.1776700000
C 3.4767900000 -2.1219400000 0.1721800000
C 0.0992200000 4.0710400000 0.1709700000
H 3.5050500000 -2.1269000000 1.2786600000
H 4.3143900000 -2.7365200000 -0.1938400000
O 2.2917600000 -2.7482000000 -0.3067000000
H 0.2124600000 5.1035400000 -0.1955900000
H 0.0878200000 4.0987300000 1.2774500000
C -1.2249300000 3.5274000000 -0.3407900000
C 1.1216300000 -2.4263800000 0.4439100000
H -2.0212200000 4.2853600000 -0.1831500000
H -1.1418600000 3.3439700000 -1.4299900000
O -1.5431100000 2.3207000000 0.3391500000
H 1.1899500000 -2.8505100000 1.4647600000
H 0.9941100000 -1.3366000000 0.5351700000
C -0.0731100000 -3.0026300000 -0.2968900000
C -2.5655900000 1.5650000000 -0.2951400000
H -0.0341100000 -2.6785800000 -1.3551300000
H -0.0597100000 -4.1101700000 -0.2822900000
O -1.2385600000 -2.4956700000 0.3383800000
H -3.5311400000 2.1077100000 -0.2804100000
H -2.3051300000 1.3684900000 -1.3534200000
C -2.6643600000 0.2425300000 0.4462400000
C -2.4432100000 -2.8247100000 -0.3399800000
H -1.6568600000 -0.1918500000 0.5383300000
H -3.0665500000 0.3957600000 1.4667600000
O -3.5276200000 -0.6101500000 -0.3047300000
H -2.7005900000 -3.8933700000 -0.1814100000
H -2.3272700000 -2.6615500000 -1.4293900000
C -3.5760000000 -1.9501900000 0.1725800000
H -4.5269100000 -2.3687900000 -0.1931600000
H -3.5934800000 -1.9736400000 1.2790500000
