16
0 1
H 0.1264400000 -1.3681400000 0.3336600000
O -0.8302900000 -1.3949500000 0.0067400000
C -1.3368300000 -0.1419800000 0.0492800000
C -0.4344500000 0.8965900000 0.7148100000
O -2.4326000000 0.1157700000 -0.4036600000
C 0.7898100000 1.3195000000 -0.1230900000
H -1.0510700000 1.7798500000 0.9213900000
H -0.0972700000 0.4923100000 1.6824800000
C 1.6395300000 0.1717500000 -0.6763100000
H 0.4589300000 1.9352400000 -0.9730800000
H 1.4183500000 1.9727800000 0.5050100000
N 1.8365800000 -0.8850800000 0.3378700000
H 1.1187400000 -0.2983000000 -1.5243200000
H 2.5897500000 0.5798300000 -1.0642200000
H 2.4341700000 -1.6288500000 -0.0278200000
H 2.3007000000 -0.5110300000 1.1690600000
