42
0 1
H 1.1185100000 -1.3212000000 -1.2407900000
C 1.1758900000 -2.0210300000 -0.3845300000
H 1.3008600000 -3.0419600000 -0.7953600000
O -0.0000000000 -1.9267900000 0.4057800000
C 2.3626700000 -1.6319200000 0.4818600000
C -1.1758900000 -2.0210300000 -0.3845300000
H 2.1247200000 -0.6938100000 1.0094900000
H 2.5697600000 -2.4072600000 1.2441700000
O 3.4838200000 -1.4698000000 -0.3852200000
H -1.3008600000 -3.0419500000 -0.7953600000
H -1.1185200000 -1.3212000000 -1.2407900000
C -2.3626700000 -1.6319200000 0.4818600000
C 4.5643800000 -0.7379300000 0.1914200000
H -2.1247300000 -0.6938100000 1.0094900000
H -2.5697700000 -2.4072600000 1.2441700000
O -3.4838200000 -1.4698000000 -0.3852200000
H 5.4990200000 -1.1909700000 -0.1833300000
H 4.5576100000 -0.8368000000 1.2918200000
C 4.5643900000 0.7379300000 -0.1914100000
C -4.5643900000 -0.7379300000 0.1914200000
H 5.4990300000 1.1909600000 0.1833500000
H 4.5576300000 0.8368000000 -1.2918100000
O 3.4838200000 1.4698000000 0.3852300000
H -4.5576200000 -0.8368000000 1.2918200000
H -5.4990300000 -1.1909600000 -0.1833300000
C -4.5643900000 0.7379300000 -0.1914100000
C 2.3626700000 1.6319200000 -0.4818600000
H -4.5576200000 0.8368000000 -1.2918100000
H -5.4990200000 1.1909700000 0.1833400000
O -3.4838100000 1.4698000000 0.3852300000
H 2.5697800000 2.4072400000 -1.2441800000
H 2.1247300000 0.6938000000 -1.0094800000
C 1.1758900000 2.0210400000 0.3845200000
C -2.3626700000 1.6319200000 -0.4818600000
H 1.1185200000 1.3212300000 1.2407900000
H 1.3008600000 3.0419700000 0.7953300000
O 0.0000000000 1.9267800000 -0.4057900000
H -2.5697700000 2.4072400000 -1.2441800000
H -2.1247200000 0.6938000000 -1.0094800000
C -1.1758900000 2.0210400000 0.3845200000
H -1.3008600000 3.0419700000 0.7953300000
H -1.1185100000 1.3212300000 1.2407900000
