22
0 1
H 1.9348600000 0.2259900000 1.6326400000
C 1.7059100000 -0.4476300000 0.7927800000
C 2.4010100000 0.0797100000 -0.4701100000
N 0.2655500000 -0.6077900000 0.7087000000
H 2.1524500000 -1.4260400000 1.0377500000
Cl 4.1907100000 0.0339500000 -0.2597500000
H 2.1712700000 -0.5372900000 -1.3480400000
H 2.1409400000 1.1224700000 -0.6856600000
C -0.1916300000 -1.6570000000 -0.1901700000
C -0.5599100000 0.5803000000 0.8727400000
C -1.5103300000 -2.3049400000 0.2158600000
H -0.2642700000 -1.3561700000 -1.2557200000
H 0.5715600000 -2.4530600000 -0.1484500000
C -0.7719900000 1.4283600000 -0.3863500000
H -1.5519500000 0.2848200000 1.2450500000
H -0.1003300000 1.2046700000 1.6534900000
Cl -2.9711400000 -1.4241100000 -0.3840400000
H -1.5842400000 -3.3109500000 -0.2133500000
H -1.5977100000 -2.3647800000 1.3075700000
Cl -1.8710400000 2.8064500000 -0.0179200000
H -1.2553400000 0.8503200000 -1.1829800000
H 0.1605300000 1.8647000000 -0.7626300000
