42
0 1
H 0.6148100000 -2.7557900000 1.9895200000
C 0.2152400000 -2.7419100000 0.9646000000
H 0.2509700000 -3.7764000000 0.5744900000
O -1.1251900000 -2.2669500000 1.0532600000
C 1.0684800000 -1.8225800000 0.0968600000
C -1.9578200000 -2.7078400000 -0.0119600000
H 0.6529100000 -1.7560500000 -0.9282200000
H 1.0721400000 -0.8042300000 0.5175100000
O 2.3820600000 -2.3810400000 0.0561200000
H -1.4327600000 -2.6537600000 -0.9834300000
H -2.2665900000 -3.7600900000 0.1518000000
C -3.1830300000 -1.8253200000 -0.0696200000
C 3.2534600000 -1.7767000000 -0.8876600000
H -3.9595600000 -2.3046500000 -0.7005700000
H -3.5973300000 -1.7065800000 0.9506400000
O -2.8091200000 -0.5652200000 -0.6044000000
H 2.7488800000 -1.6673200000 -1.8683300000
H 4.0943800000 -2.4773900000 -1.0087200000
C 3.8124900000 -0.4288200000 -0.4636300000
C -3.8124900000 0.4288200000 -0.4636300000
H 4.6943400000 -0.1856200000 -1.0946900000
H 4.1547700000 -0.4877100000 0.5885800000
O 2.8091200000 0.5652200000 -0.6044000000
H -4.1547700000 0.4877100000 0.5885800000
H -4.6943400000 0.1856200000 -1.0946900000
C -3.2534600000 1.7767000000 -0.8876600000
C 3.1830300000 1.8253200000 -0.0696200000
H -2.7488800000 1.6673200000 -1.8683300000
H -4.0943800000 2.4773900000 -1.0087200000
O -2.3820600000 2.3810400000 0.0561200000
H 3.5973300000 1.7065800000 0.9506400000
H 3.9595600000 2.3046500000 -0.7005600000
C 1.9578200000 2.7078400000 -0.0119600000
C -1.0684800000 1.8225800000 0.0968600000
H 2.2665900000 3.7600900000 0.1518000000
H 1.4327600000 2.6537600000 -0.9834300000
O 1.1251900000 2.2669500000 1.0532600000
H -0.6529100000 1.7560500000 -0.9282200000
H -1.0721400000 0.8042300000 0.5175000000
C -0.2152400000 2.7419100000 0.9646000000
H -0.2509700000 3.7764000000 0.5745000000
H -0.6148100000 2.7557800000 1.9895200000
