29
0 1
H -0.9754300000 3.8864600000 0.6011000000
O -1.2826600000 3.2189900000 -0.0349300000
C -1.7307000000 2.0824100000 0.7051700000
C -2.2574500000 1.0532500000 -0.2849100000
H -0.9200100000 1.6549300000 1.3220400000
H -2.5671000000 2.3456200000 1.3800200000
H -3.0690000000 1.5076900000 -0.8707600000
O -1.2706300000 0.6185300000 -1.2616700000
C -2.7224300000 -0.2464400000 0.3738700000
C -0.5597600000 -0.5089900000 -0.7871400000
H -3.1050600000 -0.1118500000 1.3945400000
O -3.7404200000 -0.9012400000 -0.3539900000
C -1.3942200000 -1.0553200000 0.4219000000
H -0.5174500000 -1.2886500000 -1.5619600000
N 0.8289900000 -0.1630600000 -0.4576700000
H -3.4372700000 -1.0180100000 -1.2728600000
F -1.6138700000 -2.3870500000 0.3364700000
F -0.7567200000 -0.8055800000 1.6174000000
C 1.7293800000 -1.2804600000 -0.2916100000
C 1.2650600000 1.1193600000 -0.4038600000
O 1.2636200000 -2.4079400000 -0.4244100000
N 3.0309400000 -0.9898100000 -0.0058700000
H 0.5286100000 1.8957400000 -0.6157400000
C 2.5716300000 1.3915300000 -0.1202300000
C 3.4340000000 0.2686400000 0.0914900000
H 2.9281600000 2.4188300000 -0.0784000000
N 4.7393300000 0.4715900000 0.4265000000
H 5.1599600000 1.3848000000 0.3185900000
H 5.3429400000 -0.3434700000 0.4298000000
