40
0 1
H 5.6859700000 -0.9851500000 1.5228700000
O 6.2628200000 -1.0618600000 0.7244000000
C 5.4632100000 -0.8113400000 -0.3474900000
C 4.0052900000 -0.5973400000 0.0337700000
O 5.8896000000 -0.7941700000 -1.4776100000
H 3.5637400000 -1.6092500000 0.1190800000
N 3.8836600000 0.0212700000 1.3743900000
C 3.1479200000 0.2475200000 -0.9190200000
H 4.4172900000 0.8992800000 1.3560900000
C 2.4578700000 0.3746100000 1.4360100000
H 3.7599600000 1.0361200000 -1.3779300000
H 2.7148900000 -0.3414500000 -1.7368800000
C 2.0484400000 0.8476900000 0.0055600000
H 2.2701500000 1.1313700000 2.2081400000
H 1.8828300000 -0.5293700000 1.6972800000
H 2.0565600000 1.9455400000 -0.0418100000
N 0.7028400000 0.4652000000 -0.3489200000
C -0.3200900000 1.3512300000 -0.4820100000
H 0.4222200000 -0.5146500000 -0.4558300000
C -1.6433200000 0.6795900000 -0.9047700000
O -0.2187200000 2.5687600000 -0.3278700000
H -1.6867300000 0.7692900000 -2.0012600000
N -1.6631800000 -0.7461400000 -0.5302500000
C -2.8662300000 1.3463300000 -0.2396300000
H -2.3694000000 -1.2037800000 -1.1164800000
C -2.2054300000 -0.7479400000 0.8349700000
H -3.7008000000 1.4092500000 -0.9482900000
H -2.6198900000 2.3607500000 0.0991300000
C -3.2507100000 0.4002200000 0.9301900000
H -2.6288700000 -1.7276200000 1.0867500000
H -1.3877500000 -0.5335100000 1.5429300000
H -3.1482100000 0.9152800000 1.8946800000
N -4.6434000000 -0.0538000000 0.8897100000
C -5.1824300000 -0.8288400000 -0.0939500000
H -5.2728700000 0.3154300000 1.5929400000
C -6.6726900000 -1.0897800000 0.0195500000
O -4.5167100000 -1.2961900000 -1.0231600000
H -7.1720800000 -0.6492400000 -0.8544900000
H -6.8435900000 -2.1734900000 -0.0188300000
H -7.1296600000 -0.6845400000 0.9323100000
