23
0 1
H -2.5259300000 -0.7043600000 0.5008100000
N -2.0444600000 -0.4071400000 -0.3487100000
C -1.6400300000 0.9992400000 -0.2165800000
C -0.9079000000 -1.2911200000 -0.5945200000
H -2.4236900000 1.5182400000 0.3552300000
H -1.6259300000 1.4582000000 -1.2224100000
C -0.2538800000 1.2011100000 0.4547900000
H -1.2849900000 -2.3223700000 -0.6560700000
H -0.5117500000 -1.0492600000 -1.5968100000
C 0.2538800000 -1.2011100000 0.4547900000
H -0.2779300000 2.1339200000 1.0390000000
C 0.9079000000 1.2911200000 -0.5945200000
C 0.0000000000 0.0000000000 1.3747200000
H 0.2779400000 -2.1339200000 1.0390000000
C 1.6400300000 -0.9992400000 -0.2165800000
H 1.2849900000 2.3223700000 -0.6560700000
H 0.5117500000 1.0492600000 -1.5968100000
N 2.0444600000 0.4071400000 -0.3487100000
H 0.8650200000 0.1686000000 2.0348900000
H -0.8650100000 -0.1686000000 2.0348900000
H 2.4236900000 -1.5182400000 0.3552300000
H 1.6259300000 -1.4582000000 -1.2224100000
H 2.5259300000 0.7043600000 0.5008100000
