44
0 1
O 2.2161100000 -1.0617900000 -1.6226900000
C 2.0277400000 -0.8323800000 -0.4454600000
C 0.6722300000 -0.7475500000 0.2469700000
O 3.0173100000 -0.5974900000 0.4495300000
C -0.4774800000 -1.1883500000 -0.6841600000
C 0.4153100000 0.6777600000 0.7396400000
H 0.7167400000 -1.3706500000 1.1517000000
C 4.3640400000 -0.5880700000 -0.0962000000
C -0.4805900000 -2.7084300000 -0.8860900000
N -1.7344500000 -0.6070400000 -0.1980400000
H -0.2804200000 -0.7108600000 -1.6561400000
O 0.5416200000 1.5562500000 -0.2821900000
O 0.1472600000 0.9839500000 1.8823600000
C 5.3121500000 -0.2680600000 1.0373400000
H 4.4076700000 0.1595700000 -0.9022100000
H 4.5664100000 -1.5720000000 -0.5451100000
H 6.3450500000 -0.2498200000 0.6616400000
H 5.0865300000 0.7141200000 1.4747100000
H 5.2479000000 -1.0240600000 1.8318400000
H -1.3127800000 -3.0124100000 -1.5369100000
H 0.4539200000 -3.0290900000 -1.3650500000
H -0.5825900000 -3.2422100000 0.0702900000
C -2.7584800000 -0.4769600000 -1.2282700000
C -2.2703500000 -1.1973100000 1.0276100000
C 0.2085100000 2.9306800000 0.0384000000
H -3.1856000000 -1.4662700000 -1.5179900000
H -2.2867200000 -0.0528400000 -2.1281100000
C -3.8922800000 0.4271900000 -0.7462200000
H -2.6739100000 -2.2199700000 0.8468100000
H -1.4585800000 -1.2880800000 1.7632900000
C -3.3805300000 -0.3161100000 1.5979700000
C 0.3504700000 3.7416000000 -1.2299700000
H -0.8183000000 2.9512600000 0.4341800000
H 0.8808000000 3.2797200000 0.8364900000
H -0.3294200000 3.3730900000 -2.0104400000
H 1.3780900000 3.6953500000 -1.6160200000
H 0.1052800000 4.7938200000 -1.0271500000
H -4.6653700000 0.4957700000 -1.5275800000
H -3.4892600000 1.4417300000 -0.5895100000
C -4.4858100000 -0.0983000000 0.5627300000
H -3.7860600000 -0.7829100000 2.5090700000
H -2.9397400000 0.6504400000 1.8907500000
H -5.2512000000 0.5928400000 0.9480600000
H -4.9953500000 -1.0591000000 0.3678900000
