22
0 1
H -1.0663000000 0.4571400000 -1.1780400000
C -1.2253100000 -0.1948900000 -0.3058200000
C -2.3988000000 0.3365400000 0.5142700000
N -0.0187600000 -0.2404200000 0.5038600000
H -1.4933500000 -1.1866500000 -0.7123500000
Cl -3.9199700000 0.3137100000 -0.4526300000
H -2.2265600000 1.3728900000 0.8282700000
H -2.5764600000 -0.2801500000 1.4041100000
C 1.1014500000 0.5710700000 0.0499600000
C 0.2654100000 -1.4998900000 1.1629100000
C 0.8502700000 2.0390000000 0.3855000000
H 1.2961800000 0.4681000000 -1.0341600000
H 2.0127000000 0.2367100000 0.5630700000
C 0.5871300000 -2.7070500000 0.2802100000
H -0.6159400000 -1.7900600000 1.7654300000
H 1.0894200000 -1.3448000000 1.8753300000
Cl 2.2107600000 3.0646000000 -0.1966100000
H -0.0573400000 2.4188500000 -0.1015800000
H 0.7646400000 2.1848800000 1.4690500000
Cl 2.1464300000 -2.5333300000 -0.6061600000
H -0.1830800000 -2.8756400000 -0.4829800000
H 0.6736300000 -3.6116300000 0.8964900000
