38
0 1
O 2.2110900000 -0.5308400000 -2.4393300000
N 1.4769600000 -0.9891300000 -1.5771200000
N 1.7478800000 -0.5569000000 -0.3070100000
C 2.8788500000 0.3315600000 -0.0298400000
C 1.0827700000 -1.1865700000 0.8022000000
C 4.1920200000 -0.4389400000 0.0722700000
H 2.9302100000 1.0539000000 -0.8550600000
H 2.6681500000 0.8451900000 0.9143300000
Cl 5.5366700000 0.7170800000 0.3523600000
H 4.4133500000 -0.9756700000 -0.8567500000
H 4.1655100000 -1.1313200000 0.9201500000
N -0.1661800000 -1.6920000000 0.5924000000
O 1.6790300000 -1.2702300000 1.8673300000
C -1.1976500000 -1.2855000000 -0.3669400000
H -0.5380900000 -2.0796000000 1.4609300000
P -2.1948900000 0.0255500000 0.4535800000
C -2.0582200000 -2.4818500000 -0.7661300000
H -0.7089900000 -0.8767600000 -1.2579700000
O -3.2345600000 0.4191800000 -0.7125400000
O -1.2112700000 1.2929000000 0.6277500000
O -2.7603500000 -0.3872700000 1.7590100000
C -4.4813100000 1.0880100000 -0.3425100000
C -0.7469500000 2.0665300000 -0.5091800000
C -5.5902800000 0.0779800000 -0.1392200000
H -4.6950600000 1.7699400000 -1.1773100000
H -4.3184500000 1.6866100000 0.5667100000
C 0.1219000000 3.1894700000 0.0128000000
H -0.1787400000 1.4134400000 -1.1923500000
H -1.6190000000 2.4523700000 -1.0587800000
H -5.7340000000 -0.5303000000 -1.0430500000
H -6.5335300000 0.6006200000 0.0784200000
H -5.3541700000 -0.5821500000 0.7055300000
H 0.4936600000 3.7938700000 -0.8269400000
H 0.9853900000 2.7947700000 0.5648200000
H -0.4492100000 3.8414800000 0.6871000000
H -2.8323600000 -2.1722600000 -1.4792200000
H -1.4270300000 -3.2497200000 -1.2333800000
H -2.5564900000 -2.9157200000 0.1125700000
