23
0 1
H -4.2997800000 1.1084800000 0.2116000000
O -3.3375700000 1.1870600000 0.3804000000
C -2.7989200000 -0.0159500000 0.0585300000
C -1.2914300000 -0.0448400000 0.2684200000
O -3.4624500000 -0.9502000000 -0.3476500000
C -0.5979500000 1.0227600000 -0.6130200000
N -0.7879200000 -1.4030600000 -0.0043600000
H -1.1120500000 0.2200200000 1.3242900000
C 0.8247600000 1.3931800000 -0.1629300000
H -0.5759800000 0.6373500000 -1.6442600000
H -1.2101300000 1.9356900000 -0.6171600000
P 1.9298600000 -0.0421500000 0.1432500000
H 1.2837800000 2.0395500000 -0.9273300000
H 0.7928600000 1.9649100000 0.7779600000
C 3.6244600000 0.5064700000 -0.1644900000
O 1.6596200000 -1.0272900000 -1.1026500000
O 1.6938200000 -0.6234500000 1.5030500000
H 3.7443900000 0.8636900000 -1.1953400000
H 4.2932000000 -0.3472500000 0.0072900000
H 3.8828000000 1.3055800000 0.5425400000
H 0.7069800000 -1.3540100000 -0.9433900000
H -1.5788000000 -1.9951800000 -0.2780000000
H -0.3525800000 -1.7838800000 0.8393400000
