41
0 1
H -4.4282800000 -3.2787200000 0.3098800000
C -4.0021600000 -2.3114600000 0.0503400000
C -2.7438500000 -2.2455000000 -0.5439400000
C -4.6752100000 -1.1164400000 0.3297600000
H -2.1914200000 -3.1645900000 -0.7555200000
N -2.1427500000 -1.1013300000 -0.8778000000
O -5.8732400000 -1.0315700000 0.9525300000
C -4.0582500000 0.1045100000 -0.0375000000
C -2.7918700000 0.0615800000 -0.6438000000
C -6.4951700000 -2.2520500000 1.3672800000
O -4.6021900000 1.3230100000 0.2495900000
C -2.1004800000 1.3268300000 -1.0235400000
H -6.7161700000 -2.8992000000 0.5040000000
H -7.4300100000 -1.9553500000 1.8538200000
H -5.8605800000 -2.7937800000 2.0857300000
C -5.8820300000 1.6236400000 -0.3411400000
S -1.0259700000 2.0626200000 0.3469200000
H -1.4709000000 1.2094000000 -1.9127700000
H -2.8120800000 2.1487200000 -1.1616200000
C 0.4684800000 1.0946100000 -0.0247600000
O -0.7598600000 3.4759300000 -0.0458200000
N 1.6536800000 1.5265500000 0.3600700000
N 0.4824500000 -0.1526800000 -0.6037500000
C 2.5195700000 0.5062400000 0.0078900000
H -0.3678200000 -0.6876300000 -0.8856300000
C 1.8002900000 -0.5658000000 -0.5892500000
C 3.9141500000 0.4356100000 0.1535500000
C 2.4385600000 -1.7236500000 -1.0429500000
H 4.4692500000 1.2797900000 0.5597800000
C 4.5317800000 -0.7321900000 -0.2818500000
H 1.8910600000 -2.5432900000 -1.5094900000
C 3.8159200000 -1.7950600000 -0.8718900000
O 5.9090600000 -0.9430000000 -0.1957300000
H 4.3750900000 -2.6740200000 -1.1921600000
C 6.5877000000 -0.2789400000 0.7937700000
F 6.9605300000 0.9808900000 0.3800500000
F 7.7317200000 -0.9723600000 1.0244100000
H 6.0082600000 -0.1773300000 1.7270300000
H -5.8366500000 1.5006100000 -1.4350200000
H -6.0771500000 2.6740200000 -0.0984300000
H -6.6756100000 0.9884800000 0.0735100000
