33
0 1
N 4.4794100000 -1.6919500000 0.0187600000
C 3.9819700000 -0.6401200000 -0.1716300000
N 3.5554600000 0.5693100000 -0.4551500000
C 2.3538000000 1.0557600000 -0.1953600000
N 1.3636200000 0.5160500000 0.5554700000
N 2.0945900000 2.2782000000 -0.7678900000
C 1.4386600000 -0.7757500000 1.2206000000
H 0.4157700000 0.9276000000 0.5063500000
C 1.1150200000 3.2223900000 -0.2615100000
H 2.9303900000 2.6587000000 -1.2008200000
C 1.1185900000 -1.9811300000 0.3254000000
H 2.4477200000 -0.9074100000 1.6321600000
H 0.7321600000 -0.7476100000 2.0624500000
S -0.6376200000 -2.3818800000 0.0655700000
H 1.6291000000 -1.8931900000 -0.6431800000
H 1.5182800000 -2.8900200000 0.7999600000
C -1.2391000000 -1.0213200000 -1.0282000000
C -2.0634100000 -0.0041500000 -0.3214400000
H -1.8281100000 -1.5072700000 -1.8174800000
H -0.3623300000 -0.5636600000 -1.5052400000
N -1.4939400000 1.0342400000 0.3985600000
C -3.4423100000 0.0478200000 -0.2095800000
C -2.4949300000 1.7056500000 0.9387800000
N -3.6903000000 1.1456100000 0.5980200000
C -4.5266400000 -0.8193700000 -0.7429300000
H -2.4111200000 2.5885000000 1.5658900000
H -4.6071700000 1.4738700000 0.8821800000
H -4.1035500000 -1.5841400000 -1.4055200000
H -5.2667100000 -0.2468800000 -1.3239800000
H -5.0640800000 -1.3452600000 0.0622500000
H 1.1828300000 4.1396000000 -0.8585500000
H 0.0943300000 2.8287100000 -0.3649700000
H 1.2825900000 3.4797600000 0.8000600000
