22
0 1
H -1.3699300000 0.8829000000 -0.7194400000
C -1.2434800000 -0.1590200000 -0.3944000000
C -2.4370800000 -0.5752700000 0.4704200000
N 0.0369100000 -0.2824100000 0.2816800000
H -1.2249400000 -0.7752500000 -1.3066700000
Cl -3.9824200000 -0.3620400000 -0.4303100000
H -2.3844500000 -1.6334000000 0.7563800000
H -2.5139600000 0.0363600000 1.3787300000
C 0.4734100000 -1.6292100000 0.5807100000
C 0.3555100000 0.7355100000 1.2697600000
C 1.9850600000 -1.8001800000 0.6329900000
H 0.0700700000 -2.2973200000 -0.1948800000
H 0.0957400000 -2.0057100000 1.5618900000
C 1.4499400000 1.6998400000 0.8249400000
H -0.5418800000 1.3196800000 1.5342000000
H 0.6991800000 0.2613600000 2.2100000000
Cl 2.7797400000 -1.4069500000 -0.9319300000
H 2.2361600000 -2.8415100000 0.8712300000
H 2.4453000000 -1.1513700000 1.3896500000
Cl 0.8883900000 2.7708600000 -0.5109700000
H 2.3213500000 1.1604300000 0.4350100000
H 1.7517700000 2.3588500000 1.6501300000
