42
0 1
H -2.2639500000 1.7463600000 1.4879200000
C -2.7826300000 1.8062100000 0.5186700000
C -3.8900300000 2.8362900000 0.5384300000
O -3.3758500000 0.5122900000 0.2313600000
H -2.0375300000 2.0292100000 -0.2630200000
H -4.3994700000 2.8812900000 -0.4338900000
H -3.4696700000 3.8287500000 0.7558800000
H -4.6329800000 2.5981300000 1.3118800000
P -2.4083800000 -0.7821300000 0.1439100000
C -3.6570000000 -2.0485400000 -0.1659500000
S -1.3366100000 -0.5458800000 -1.6665500000
O -1.5109800000 -1.0253600000 1.3100400000
H -4.2340300000 -1.8057700000 -1.0670800000
H -3.1466500000 -3.0096800000 -0.3012200000
H -4.3266700000 -2.1020500000 0.7029700000
C 0.3694500000 -0.7974200000 -1.0281900000
C 0.9678800000 0.4938700000 -0.4370500000
H 0.9465200000 -1.1691800000 -1.8853200000
H 0.3166200000 -1.5824200000 -0.2647700000
N 2.2567400000 0.3446100000 0.1888100000
H 1.0308400000 1.2553900000 -1.2301600000
H 0.2443700000 0.8738200000 0.3051900000
C 3.4735200000 0.5921000000 -0.5774400000
C 2.3224600000 -0.4675600000 1.4047100000
C 3.5963400000 -0.2251900000 -1.8759900000
C 3.6597300000 2.0889400000 -0.8655600000
H 4.3036300000 0.2852500000 0.0791100000
C 2.9214400000 -1.8705100000 1.2038400000
C 3.0567800000 0.2752100000 2.5295900000
H 1.2743500000 -0.5980500000 1.7220200000
H 2.8226300000 0.0707000000 -2.6012300000
H 4.5730400000 -0.0525100000 -2.3529600000
H 3.4943900000 -1.3014700000 -1.6813800000
H 2.8569700000 2.4712600000 -1.5146000000
H 4.6143600000 2.2759600000 -1.3799000000
H 3.6435500000 2.6642700000 0.0697600000
H 2.3741500000 -2.4341300000 0.4358500000
H 3.9774300000 -1.8132600000 0.8971600000
H 2.8819800000 -2.4448500000 2.1413100000
H 4.1141400000 0.4450500000 2.2728200000
H 2.5893400000 1.2521400000 2.7132200000
H 3.0339500000 -0.3062000000 3.4632600000
