36
0 1
O 0.4205100000 2.1163300000 -0.0501200000
C 0.1918100000 0.9435400000 0.1583500000
C -1.0383300000 0.2157300000 -0.4197600000
C 1.1203500000 0.0239600000 0.9625500000
O -0.5380100000 -0.8060700000 -1.2847000000
O -1.7984500000 -0.2833600000 0.6661400000
C -2.0123000000 1.0896100000 -1.2229000000
H 0.6490000000 -0.1576600000 1.9429000000
O 2.4133500000 0.5566100000 1.1542600000
C 1.3872600000 -1.2793300000 0.1959000000
C 0.2085000000 -1.8147600000 -0.5953600000
C -3.2060100000 -0.0734700000 0.3466900000
H -2.1620900000 0.6410400000 -2.2186600000
H -1.6450100000 2.1182900000 -1.3203000000
O -3.2093800000 1.1066400000 -0.4475100000
C 3.2601800000 0.0589000000 0.0808700000
H 1.7285500000 -2.0674500000 0.8975800000
O 2.4489900000 -0.8712000000 -0.6634000000
H -0.4544200000 -2.3669200000 0.0917900000
H 0.5656200000 -2.5027300000 -1.3730300000
C -3.7468100000 -1.2782300000 -0.4220900000
C -3.9504700000 0.2027700000 1.6356800000
C 3.6640400000 1.1881000000 -0.8501700000
C 4.4475700000 -0.6489100000 0.7207900000
H -3.1732200000 -1.4399900000 -1.3436300000
H -4.8007800000 -1.1100100000 -0.6816300000
H -3.6751500000 -2.1843200000 0.1947100000
H -5.0028000000 0.4241900000 1.4150200000
H -3.5005600000 1.0649900000 2.1424900000
H -3.9063400000 -0.6731600000 2.2957400000
H 4.2442100000 0.7889000000 -1.6932900000
H 2.7715600000 1.6980100000 -1.2300200000
H 4.2825000000 1.9145300000 -0.3068700000
H 5.1341800000 -1.0131200000 -0.0551200000
H 4.1055500000 -1.4998000000 1.3249300000
H 4.9884800000 0.0461400000 1.3767700000
