44
0 1
O 0.3217000000 2.1457300000 1.5743300000
C 0.1381000000 1.5895600000 0.4928900000
C 1.1467100000 1.7985600000 -0.6314900000
C -1.0904200000 0.7615100000 0.2710500000
C 2.5984100000 1.5105900000 -0.1498800000
C 1.0420300000 3.2616600000 -1.0917700000
H 0.9249200000 1.1453800000 -1.4856900000
C -1.3935100000 0.1165600000 -0.9388200000
C -1.9951900000 0.6307300000 1.3391900000
N 2.9927500000 0.1254500000 0.0150900000
H 3.2842800000 1.9676600000 -0.8827500000
H 2.7364600000 2.0340700000 0.8097000000
C 3.0277600000 -0.6447200000 -1.2222800000
C 2.3010600000 -0.5769000000 1.0888800000
H 3.5579000000 -0.0485600000 -1.9822800000
H 2.0035400000 -0.8428000000 -1.6200600000
C 3.7278800000 -1.9860800000 -1.0089900000
H 2.3064600000 0.0668000000 1.9812000000
H 1.2289800000 -0.7581300000 0.8350800000
C 2.9671900000 -1.9203700000 1.3814600000
H 3.7191900000 -2.5584700000 -1.9498100000
H 4.7816000000 -1.7976000000 -0.7453700000
C 3.0485400000 -2.7730400000 0.1138300000
H 2.4032700000 -2.4431300000 2.1694400000
H 3.9824000000 -1.7349100000 1.7693200000
H 3.5848100000 -3.7143000000 0.3096100000
H 2.0269300000 -3.0490000000 -0.2038300000
H 1.7488400000 3.4562600000 -1.9114100000
H 0.0299200000 3.5028200000 -1.4474900000
H 1.2782900000 3.9354700000 -0.2561100000
H -0.7155400000 0.1887300000 -1.7894000000
C -2.5604100000 -0.6331700000 -1.0720600000
H -1.7518700000 1.1326800000 2.2766900000
C -3.1555200000 -0.1199400000 1.2017600000
H -2.7759900000 -1.1316200000 -2.0204500000
C -3.4613300000 -0.7665700000 -0.0070500000
H -3.8427400000 -0.2154000000 2.0464600000
C -4.7451500000 -1.5376500000 -0.1688500000
C -5.9024700000 -0.6418400000 -0.6363100000
H -4.5960700000 -2.3520600000 -0.8950500000
H -5.0126800000 -2.0094400000 0.7897700000
H -5.6709700000 -0.1775300000 -1.6057400000
H -6.8300600000 -1.2217800000 -0.7459600000
H -6.0869200000 0.1676100000 0.0845400000
