40
0 1
H 5.2585100000 -0.7465500000 -0.9734300000
O 5.8892500000 -0.0663700000 -0.5754300000
C 5.0445900000 0.8812300000 -0.1281300000
C 3.5792900000 0.5847200000 -0.5099000000
O 5.3982600000 1.8685200000 0.4803100000
H 3.3713500000 1.1925800000 -1.4034200000
N 3.4551500000 -0.8459200000 -0.8533100000
C 2.5831700000 0.8911200000 0.6301900000
H 2.6679300000 -0.9430000000 -1.5050800000
C 3.0415400000 -1.4901900000 0.4049800000
H 3.0712500000 1.4819300000 1.4161700000
H 1.7228700000 1.4632600000 0.2625000000
C 2.1100500000 -0.4978200000 1.1446300000
H 3.9350600000 -1.6643500000 1.0260300000
H 2.5644800000 -2.4581800000 0.2100400000
H 2.2595400000 -0.5813200000 2.2292400000
N 0.6874000000 -0.7479200000 0.9330200000
C 0.0552100000 -0.8347200000 -0.2580500000
H 0.0368600000 -0.7503800000 1.7254400000
C -1.4665000000 -1.0470600000 -0.1187900000
O 0.6015300000 -0.7935200000 -1.3691900000
H -1.6281300000 -2.1317300000 -0.2160500000
N -1.9500000000 -0.5967900000 1.1980600000
C -2.2583700000 -0.2677600000 -1.1924600000
H -2.8421100000 -1.0717000000 1.3725100000
C -2.2751800000 0.8215800000 0.9951600000
H -3.0908700000 -0.8741100000 -1.5686300000
H -1.6128700000 -0.0040200000 -2.0398100000
C -2.8166500000 0.9791300000 -0.4538200000
H -2.9851300000 1.1726100000 1.7534800000
H -1.3511000000 1.4158000000 1.0884400000
H -2.4214800000 1.9022700000 -0.8983800000
N -4.2733200000 1.1121900000 -0.5381600000
C -5.1689700000 0.2248900000 -0.0189200000
H -4.6385500000 1.8731200000 -1.0991500000
C -6.6279400000 0.5176800000 -0.3128100000
O -4.8316800000 -0.7580100000 0.6485000000
H -7.0372500000 -0.3098200000 -0.9086900000
H -6.7955900000 1.4605000000 -0.8503900000
H -7.1797000000 0.5404800000 0.6359700000
