32
0 1
H -2.7790900000 -0.5684800000 -1.8700400000
C -2.4499600000 -0.2729100000 -0.8637800000
C -0.9304700000 -0.0487100000 -0.8433000000
O -2.9700700000 1.0259500000 -0.5175600000
H -2.7845200000 -1.0244900000 -0.1401900000
C -0.3654500000 0.0280300000 0.5838300000
O -0.1611100000 -0.8915900000 -1.7158700000
H -0.7530100000 0.9331300000 -1.3081400000
N -4.4414300000 1.0286400000 -0.3575300000
C 1.0711300000 0.5717300000 0.7925200000
O -0.4203700000 -1.2937600000 1.1339400000
H -1.0329200000 0.6963600000 1.1528100000
N -0.3725000000 -2.3815800000 -1.6318000000
O -5.0057800000 -0.0188700000 -0.5654800000
O -4.8501000000 2.1112400000 -0.0408900000
C 2.1557900000 -0.0857000000 -0.0533800000
O 1.1158100000 2.0164000000 0.8867500000
H 1.3079900000 0.3335400000 1.8434400000
N -0.8567800000 -1.3530700000 2.5812800000
O 0.5582500000 -2.9620100000 -2.1110400000
O -1.4126800000 -2.7683100000 -1.1667500000
O 3.3954700000 0.3362800000 0.5417000000
H 2.1167300000 0.1889200000 -1.1118800000
H 2.0373800000 -1.1771700000 0.0310100000
N 4.5678100000 -0.2651400000 -0.1199200000
O 4.3410400000 -1.0295200000 -1.0286500000
O 5.5971000000 0.1118600000 0.3697900000
N 1.1677200000 2.8173500000 -0.3496000000
O -0.8385900000 -2.4788400000 2.9821600000
O -1.1520800000 -0.3064400000 3.0996500000
O 1.0385800000 2.2377900000 -1.4070500000
O 1.3329700000 3.9773200000 -0.1043700000
