44
0 1
O 2.3492800000 -0.7456700000 -1.4683200000
C 2.0671500000 -0.4820900000 -0.3140300000
C 0.6823700000 -0.6113600000 0.3126600000
O 2.9545800000 -0.0447000000 0.6075800000
C -0.3974800000 -0.9838900000 -0.7308200000
C 0.3136200000 0.5910200000 1.2104700000
H 0.7742700000 -1.4298300000 1.0444400000
C 4.3332400000 0.0942600000 0.1622400000
C -0.3308500000 -2.4790200000 -1.0704400000
N -1.7033300000 -0.4916700000 -0.2771300000
H -0.1671200000 -0.4292000000 -1.6528900000
O 0.2995700000 1.8474500000 0.7020400000
O 0.0940900000 0.4422100000 2.3934800000
C 5.0822200000 -1.2183600000 0.2843700000
H 4.3318900000 0.4603900000 -0.8737100000
H 4.7492300000 0.8636200000 0.8251000000
H 4.6610600000 -1.9723400000 -0.3934700000
H 6.1381400000 -1.0679300000 0.0161000000
H 5.0401000000 -1.5984100000 1.3142900000
H -1.0996300000 -2.7454700000 -1.8096000000
H 0.6491600000 -2.7233900000 -1.5007000000
H -0.4841700000 -3.1005200000 -0.1762200000
C -2.6704400000 -0.3180400000 -1.3579600000
C -2.2930100000 -1.2251400000 0.8467300000
C 0.3204900000 2.1081300000 -0.7181300000
H -3.0293100000 -1.2968600000 -1.7535900000
H -2.1686700000 0.1989100000 -2.1919800000
C -3.8720400000 0.4930400000 -0.8745000000
H -2.6419400000 -2.2338900000 0.5299600000
H -1.5284300000 -1.3652300000 1.6231100000
C -3.4733400000 -0.4455300000 1.4223700000
C 0.4980500000 3.6006600000 -0.8985000000
H 1.1408000000 1.5582800000 -1.2040000000
H -0.6354300000 1.7643000000 -1.1416100000
H 0.4963100000 3.8493000000 -1.9693400000
H 1.4493500000 3.9374800000 -0.4645500000
H -0.3189900000 4.1500700000 -0.4118300000
H -4.5971600000 0.6007000000 -1.6963200000
H -3.5270600000 1.5044700000 -0.6024700000
C -4.5210700000 -0.1723100000 0.3413900000
H -3.9130700000 -1.0137800000 2.2564800000
H -3.0956400000 0.5037500000 1.8347100000
H -5.3362400000 0.4531800000 0.7362400000
H -4.9778000000 -1.1283900000 0.0284200000
