29
0 1
H -4.6771300000 -0.7828000000 -0.1088400000
O -4.5439400000 -1.5777800000 0.4414500000
C -3.1563000000 -1.8872700000 0.4358000000
C -2.3151900000 -0.6310200000 0.5965200000
H -2.8509300000 -2.4090800000 -0.4936100000
H -2.9735000000 -2.5667100000 1.2805600000
H -2.6591900000 -0.0690700000 1.4871100000
O -0.9285300000 -0.9739800000 0.7148800000
C -2.3525500000 0.3031500000 -0.6186600000
C -0.1993700000 0.2500800000 0.5637500000
H -2.2845900000 -0.3065500000 -1.5407700000
O -3.5241500000 1.0923200000 -0.5939000000
C -1.0101600000 1.0623200000 -0.4936500000
H -0.1710300000 0.8374800000 1.4975400000
N 1.1679100000 -0.0365100000 0.2346500000
H -3.4967800000 1.7272700000 -1.3313400000
F -1.1907200000 2.3528900000 -0.0864200000
F -0.3697600000 1.1206700000 -1.7141400000
C 2.2090900000 0.5966300000 1.0387200000
C 1.4751800000 -0.9072800000 -0.7649000000
O 1.8717700000 1.3629900000 1.9314400000
N 3.4960200000 0.2774200000 0.7244000000
H 0.6317700000 -1.3573800000 -1.2865700000
C 2.7679900000 -1.2053500000 -1.0610700000
C 3.7710400000 -0.5606000000 -0.2636000000
H 3.0129100000 -1.9027700000 -1.8593600000
N 5.0838100000 -0.7957500000 -0.5198800000
H 5.3725300000 -1.5108200000 -1.1728900000
H 5.7663500000 -0.3903500000 0.1105600000
