33
0 1
N 0.6420900000 3.1904800000 -0.4455100000
C 1.4429500000 2.3264900000 -0.3853400000
N 2.3893900000 1.4190300000 -0.3592900000
C 2.1349200000 0.2185000000 0.1515600000
N 0.9095000000 -0.1767800000 0.5674100000
N 3.1788700000 -0.6408900000 0.2989900000
C 0.5533700000 -1.4196200000 1.2205500000
H 0.1298800000 0.4180600000 0.2858100000
C 4.5169000000 -0.3033300000 -0.1571200000
H 2.9564700000 -1.6215900000 0.4150300000
C 0.2085200000 -2.5974300000 0.2916800000
H -0.3168700000 -1.1991200000 1.8546500000
H 1.3691600000 -1.7197100000 1.8997200000
S -0.9418300000 -2.2596100000 -1.0761700000
H 1.1024300000 -2.9774300000 -0.2295400000
H -0.1794400000 -3.4220500000 0.9107200000
C -2.4209400000 -1.5618000000 -0.2276700000
C -2.2677600000 -0.1584300000 0.2566300000
H -3.2040300000 -1.6533500000 -0.9953000000
H -2.7034100000 -2.2125800000 0.6113700000
N -2.3009800000 0.1390400000 1.6093600000
C -2.0001100000 0.9862300000 -0.4829700000
C -2.0513900000 1.4370600000 1.6919500000
N -1.8786100000 1.9932500000 0.4566900000
C -1.8553000000 1.2293200000 -1.9443400000
H -1.9760600000 2.0135200000 2.6094600000
H -1.4160400000 2.8840800000 0.2533900000
H -1.5886700000 0.2955500000 -2.4558500000
H -2.7892300000 1.6101000000 -2.3884500000
H -1.0637300000 1.9675500000 -2.1392900000
H 4.5938900000 -0.2954400000 -1.2560000000
H 4.7861100000 0.6943500000 0.2080600000
H 5.2200800000 -1.0391500000 0.2518700000
