33
0 1
N -3.6384800000 -1.2431500000 -0.8890900000
C -2.6897300000 -0.5927200000 -1.1562300000
N -1.5692400000 0.0345300000 -1.4291400000
C -1.2236000000 1.0646900000 -0.6588600000
N -0.0053800000 1.6355600000 -0.8905200000
N -2.0306400000 1.5513900000 0.3141300000
C 0.8767500000 2.0651300000 0.2024800000
H 0.5034300000 1.0660300000 -1.5759500000
C -1.9486300000 2.8615000000 0.9370000000
H -2.8984100000 1.0309600000 0.4244300000
C 2.3445800000 1.8738700000 -0.1896400000
H 0.7318700000 3.1341900000 0.4262000000
H 0.6625600000 1.4858000000 1.1137400000
S 2.7884300000 0.2587600000 -0.8984800000
H 2.6287700000 2.5874200000 -0.9787500000
H 2.9762800000 2.0810200000 0.6862100000
C 2.5452100000 -0.8990100000 0.5199200000
C 1.1407200000 -1.2372900000 0.8778200000
H 3.1071900000 -1.7882900000 0.1983200000
H 3.0603900000 -0.4774500000 1.3940700000
N 0.5359600000 -0.6983600000 2.0032800000
C 0.2538200000 -2.0564800000 0.1973900000
C -0.6960800000 -1.1778700000 2.0043200000
N -0.9075100000 -2.0103800000 0.9413300000
C 0.3673100000 -2.8073700000 -1.0801300000
H -1.4633500000 -0.9689300000 2.7443900000
H -1.8096900000 -2.3782300000 0.6421300000
H -0.1960600000 -2.3021100000 -1.8805000000
H 1.4168600000 -2.8623300000 -1.3959500000
H -0.0146900000 -3.8351900000 -0.9880300000
H -1.5767100000 3.6059900000 0.2197500000
H -2.9579200000 3.1611100000 1.2448500000
H -1.3005900000 2.8661200000 1.8263500000
