13
0 1
N -1.1972580000 0.9890610000 3.4000580000
C 0.1930370000 1.2176640000 3.4000040000
N 1.0089720000 0.1323910000 3.3999650000
C 0.5038440000 -1.1109620000 3.3999710000
C -0.9216270000 -1.3524490000 3.4000230000
C -1.7337810000 -0.2635560000 3.4000630000
H -1.7809540000 1.8152000000 3.4000920000
O 0.5949650000 2.3888160000 3.3999910000
N 1.3687060000 -2.1304250000 3.3999290000
H 2.3965740000 -1.9560750000 3.3998710000
H 1.0251390000 -3.0781360000 3.3999280000
H -1.3292250000 -2.3598170000 3.4000320000
H -2.8208530000 -0.3321890000 3.4001060000
