15
0 1
N -0.2143860000 -1.9930210000 0.0001580000
C -1.4834580000 -1.5376490000 0.0000390000
N -1.8969870000 -0.2697650000 -0.0001260000
C -0.8590920000 0.5833320000 -0.0001300000
C 0.5023510000 0.2582240000 0.0000250000
C 0.8189870000 -1.1204150000 0.0001690000
N 1.2930250000 1.3953620000 -0.0000180000
C 0.4308840000 2.3855280000 -0.0001910000
N -0.8846300000 1.9602990000 -0.0002680000
H -2.2473350000 -2.3170040000 0.0000550000
N 2.0781530000 -1.5902790000 0.0003130000
H 2.8393370000 -0.9285350000 0.0003540000
H 2.2576250000 -2.5992260000 0.0005070000
H 0.6864280000 3.4404690000 -0.0002720000
H -1.7150930000 2.5358360000 -0.0004080000
