12
0 1
C -1.9528900000 0.1335600000 0.0147900000
H -2.0775200000 0.7165300000 0.9254200000
H -2.7515500000 -0.6024400000 -0.0207800000
C -0.5851800000 -0.5300100000 -0.0265000000
H -0.4800400000 -1.2171500000 0.8152900000
C 0.5294600000 0.4940700000 0.0286300000
H 0.4364700000 1.0966300000 0.9365700000
O 1.8242800000 -0.0841000000 -0.0603100000
H 1.9342900000 -0.6778800000 0.6855600000
H 0.4560800000 1.1698100000 -0.8208500000
H -0.4717800000 -1.1196000000 -0.9350000000
H -2.0824500000 0.8065500000 -0.8306200000
