12
0 1
C -1.5745200000 -0.5601200000 -0.1339900000
H -1.9419700000 -1.1150000000 0.7240600000
C -0.7016100000 0.6334800000 0.2776500000
H -0.6000600000 0.6797700000 1.3601200000
H -1.1671500000 1.5671800000 -0.0361800000
C 0.6908700000 0.5770100000 -0.3179400000
O 1.4590500000 -0.5065300000 0.1893000000
H 1.0089000000 -1.3231400000 -0.0383500000
H 1.2523500000 1.4705600000 -0.0584800000
H 0.6294500000 0.5241600000 -1.4087700000
H -2.4379700000 -0.2445800000 -0.7126000000
H -1.0242300000 -1.2637700000 -0.7590400000
