13
0 1
C 1.7102400000 0.0092052400 0.0074514600
C -0.8272390000 -0.5726250000 -0.0438166000
H 2.3366000000 1.8613900000 -0.3117320000
H 0.6245140000 1.6309800000 -0.6811860000
H 0.7781800000 -1.8052000000 0.1404870000
H -0.8507180000 1.2494400000 0.9065000000
H -2.9456700000 -0.0385254000 0.0772138000
N 1.4865500000 1.3465400000 -0.2262310000
N 0.5459320000 -0.8284180000 0.0171220000
N -1.2138900000 0.7721760000 0.0720135000
O 2.7961000000 -0.4751190000 0.2088670000
O -1.5814700000 -1.4792100000 -0.2036910000
O -2.5860300000 0.8856170000 0.1256460000
