15
0 1
H -1.8492000000 -0.4472640000 -0.3170390000
H -2.5010500000 -1.8045000000 0.1672780000
H -0.9226670000 1.6299100000 -0.1731190000
H -2.4864500000 1.7226900000 0.1167900000
H 1.2052800000 1.8993400000 1.3131500000
H 0.5183040000 0.5467190000 0.8022490000
H 1.1744100000 -1.1167400000 0.3801220000
H -0.2774950000 -1.3899600000 0.6643980000
H 3.1889800000 -0.3817000000 -0.8680200000
H 1.9292500000 0.5162120000 -0.7537510000
O -1.7340300000 -1.4193400000 -0.3260500000
O -1.8266400000 1.2874900000 -0.4397700000
O 0.8574970000 1.4881900000 0.4655740000
O 0.5214380000 -1.0677900000 1.0941800000
O 2.1843100000 -0.4353950000 -0.9604400000
