9
0 1
C -2.2860100000 -0.0711838000 0.3244490000
H -1.6049100000 1.6811900000 0.4630120000
H -2.3432600000 -0.0289311000 1.4108400000
H 0.5611690000 -0.4047520000 0.3559980000
N 2.3687200000 -0.4619280000 0.2682330000
O -1.8239000000 1.0533200000 -0.2287660000
O -2.5984600000 -1.0362700000 -0.2965380000
O 1.1855100000 0.2450870000 -0.0274146000
O 3.3021000000 0.0394999000 -0.2040530000
