25
0 1
C -3.7414700000 -1.2464900000 -0.1463920000
C -1.7363300000 0.1019120000 0.0967246000
C -0.0265956000 1.5634900000 0.0463738000
C 0.8919030000 0.5174110000 -0.1001950000
C 3.0925800000 -0.4392870000 -0.3550290000
C 2.5422700000 -1.6068300000 0.4704270000
C 0.3469480000 -0.7537310000 -0.0414907000
H 0.6528260000 -2.6669400000 0.1657750000
H 3.1690600000 -2.4966800000 0.2583470000
H 2.5380500000 -1.3135700000 1.5213400000
H 3.0591500000 -0.7833190000 -1.3801000000
H 4.1177700000 -0.3219500000 -0.0956948000
H 2.5872600000 1.4727300000 -0.7377900000
H 1.2582000000 2.9179500000 0.6865440000
H -0.2870670000 3.5087400000 0.2670870000
H -3.6244300000 0.8443540000 -0.1425320000
H -4.8142700000 -1.0763600000 0.0547054000
H -3.5410500000 -1.8717900000 -1.0657500000
H -3.4059100000 -1.8745300000 0.6707270000
N -3.1032400000 0.0081040200 -0.0242500000
N -1.3204400000 1.3858400000 0.0910521000
N 0.4911670000 2.8568000000 0.0468932000
N 2.3008200000 0.7272040000 -0.1132570000
N 1.1959200000 -1.8564400000 -0.0708257000
N -0.9821470000 -1.0011500000 0.0667938000
