27
0 1
C -0.6705940000 2.6820300000 -0.6165220000
C -1.0981100000 1.3121900000 -0.1262880000
C -0.5994980000 -1.1637900000 -0.4950480000
C -1.9255100000 -1.9706100000 -0.1360320000
C 0.3906250000 -1.3395600000 0.6721940000
C 1.6781100000 -0.6536450000 0.3561100000
C 2.2231100000 0.3763560000 1.0023500000
C 3.6077000000 -0.4238970000 -0.5648950000
H -2.5800300000 -0.3596220000 0.6881810000
H 4.0868200000 1.4664800000 0.6769040000
H 4.5666600000 -0.6914560000 -0.9537820000
H 1.7851200000 0.9599070000 1.8489600000
H 0.3056090000 -2.3790800000 0.8822240000
H -0.0229855000 -0.7989760000 1.5602900000
H -0.2698560000 -1.7020600000 -1.3306300000
H 0.0858367000 0.3176770000 -1.6250500000
H -0.6419280000 2.5921500000 -1.6710900000
H 0.4151780000 2.9015000000 -0.3359690000
H -1.9056100000 3.7608600000 0.7320470000
H -2.2811200000 3.9399600000 -0.7607270000
N -1.4828500000 3.7877100000 -0.2150160000
N -0.5780970000 0.2662360000 -0.8019560000
N 2.5432000000 -1.2062900000 -0.6154310000
N 3.4752300000 0.5956870000 0.4054440000
O -1.8003600000 1.1527700000 0.8910570000
O -2.0225500000 -3.1598100000 -0.4647400000
O -2.7872400000 -1.3711100000 0.6144480000
