14
0 1
C 1.6387100000 -0.1812990000 -0.1047130000
C -1.7449400000 -0.0331642000 0.0229158000
H 3.6115400000 0.3474810000 -0.4310590000
H 2.6669900000 1.6797600000 0.3306170000
H 0.6648950000 1.0657100000 1.2478000000
H -0.4071950000 -1.3451200000 0.8420120000
H -1.0352200000 1.7868800000 -0.8485710000
H -2.7184300000 1.5727100000 -0.8511770000
N 2.7716600000 0.6576660000 0.0600944000
N 0.5018430000 0.3975400000 0.4841280000
N -0.6320310000 -0.3750050000 0.6970560000
N -1.8286900000 1.2544700000 -0.4844820000
O 1.6499000000 -1.3098500000 -0.6169100000
O -2.6292400000 -0.8605640000 -0.0201418000
