16
0 1
C -0.9582970000 0.5616440000 -0.7237750000
C -1.1657500000 -0.5983270000 0.1967270000
C 0.4785060000 0.5060420000 -1.1312900000
C 1.4554900000 -0.0017640300 -0.0891726000
H -1.6640100000 1.8013100000 0.6932990000
H -0.3106320000 2.2737700000 0.1732830000
H -1.5315500000 0.3190670000 -1.6001800000
H 0.5493500000 -0.1023900000 -2.0148600000
H 0.7917810000 1.4743800000 -1.2936400000
H 2.0304400000 0.4007820000 1.6960400000
H -1.0874000000 -2.5142000000 0.0160086000
N -1.1854400000 1.9063100000 -0.1216950000
O -1.3388300000 -0.5868240000 1.4173200000
O 2.2698300000 -0.9251130000 -0.1754860000
O 1.4523200000 0.7677780000 0.9978570000
O -1.0507600000 -1.7311500000 -0.5313170000
