9
0 1
C -0.6130810000 -0.0279449000 -0.0029419400
H -2.4508500000 0.8626470000 0.0151533000
H -2.5355500000 -0.8582740000 0.2080360000
H 2.2167100000 -1.0414300000 0.0098576100
N -2.0087300000 -0.0118615000 -0.0186982000
N 0.1146890000 1.1124300000 -0.0029454400
N 1.3711600000 0.7468310000 0.0001766430
N 1.3400000000 -0.5622220000 0.0319564000
N 0.1040390000 -1.1130700000 -0.0412602000
