9
0 1
C 0.0887147000 -0.0606214000 0.0183866000
H 2.7797900000 -1.0537200000 -0.1274660000
N -1.3645200000 -0.0399594000 -0.0251080000
N 0.6495330000 1.1118500000 -0.1059650000
N 1.8912000000 0.8188730000 -0.1002500000
N 1.9793500000 -0.5198590000 0.0985961000
N 0.8282130000 -1.1439100000 0.1217560000
O -1.9394100000 1.0856600000 0.1540560000
O -1.9604000000 -1.1071000000 -0.1423130000
