21
0 1
C -1.6169600000 -0.1131060000 0.0097058600
C 0.7253020000 -0.6523590000 0.0884242000
C 1.8071400000 -1.5701600000 0.0867835000
C 3.1161600000 -1.2007000000 0.0461586000
C 3.3972700000 0.2066520000 -0.0753096000
C 2.3939400000 1.1432400000 -0.0186749000
C 1.0689600000 0.7213860000 0.0169734000
C -1.3119400000 1.3389200000 0.0544740000
H 0.2147020000 2.6335900000 -0.1466180000
H 2.5505700000 2.2646200000 -0.1557620000
H 4.3993000000 0.5697550000 -0.2016570000
H 3.9028500000 -1.9217500000 0.0196039000
H -0.9443380000 -1.8992600000 -0.5358950000
H -2.4831400000 -2.2230200000 0.6422530000
H -4.0088900000 -2.0355500000 -0.0772998000
H 1.5952900000 -2.6430000000 0.1489610000
N 0.0090785800 1.6310000000 -0.1090600000
N -3.0286900000 -1.7991900000 -0.1240060000
N -2.8808200000 -0.4448580000 -0.0780789000
N -0.6126520000 -1.0563800000 0.0234672000
O -2.1392600000 2.2121800000 0.1336180000
