12
0 1
H -0.2610410000 -2.5448100000 -0.5145550000
H 0.5550380000 -1.3242800000 0.0260034000
H -1.5062400000 -0.5798190000 -0.0772743000
H -2.5066100000 0.3008190000 0.7249940000
H -0.5325290000 1.4099100000 -0.1972920000
H 0.2005570000 2.6544800000 0.5526430000
H 1.4748400000 0.5305300000 0.1378280000
H 2.5339500000 -0.2454260000 -0.7100530000
O -0.3000020000 -1.7607800000 0.1114470000
O -2.0086500000 0.2609860000 -0.1270290000
O 0.3596500000 1.8089900000 -0.0628707000
O 1.9542500000 -0.3343710000 0.0856657000
