15
0 1
C 0.5594100000 -0.2416880000 0.2734720000
H -3.7267500000 -1.2481400000 0.2349310000
H -2.7766200000 -0.3090250000 -0.5769230000
H -1.3543400000 1.6791800000 -0.7201890000
H -1.2660400000 1.5471600000 0.9205220000
H 1.3125400000 1.7237700000 0.2884580000
H 1.5829700000 -1.9247100000 0.1453810000
H 2.4237900000 0.2382700000 -1.3352400000
H 3.3153100000 0.1147340000 0.0602721000
N -0.7137590000 1.7935300000 0.0981812000
N 0.5438580000 1.1224400000 0.0055811500
N 1.6341800000 -0.9090100000 0.0539789000
N 2.7996600000 -0.4097700000 -0.6075630000
O -3.6602800000 -0.6778140000 -0.5338930000
O -0.4290850000 -0.7661110000 0.8452310000
