9
0 1
C -1.4897100000 -0.2974330000 -0.0104892000
C -1.1137600000 1.2220400000 0.0190564000
C 0.6330950000 -0.0482337000 -0.0297603000
C 2.0400700000 -0.2066170000 0.0036225600
H -1.8917200000 1.9673000000 0.0516911000
N 0.1264030000 1.3396500000 -0.0204160000
N -0.2036810000 -0.9353710000 -0.0118729000
N 3.2222100000 -0.3260100000 0.0226881000
O -2.5676300000 -0.8167100000 0.0151172000
