30
0 1
C -2.1717300000 0.1289180000 -0.6264110000
C -0.7447170000 1.9931600000 0.0623110000
C 0.7293280000 1.8215400000 -0.3942490000
C 1.6088100000 1.2888200000 0.7680130000
C 2.5259600000 0.1110380000 0.4842590000
C 1.8115600000 -1.1655800000 -0.0721537000
H 0.0244300000 -0.4155040000 0.4629220000
H 3.9796400000 -0.5242950000 -0.6866480000
H 4.2743000000 0.9938860000 0.0092717400
H 2.8813300000 -0.1905290000 1.4847100000
H 0.9601930000 1.0143100000 1.6082400000
H 2.2373500000 2.1402800000 1.1291900000
H 0.6513340000 1.2845900000 -1.3538400000
H 1.1909800000 2.7980600000 -0.7024180000
H -0.8852750000 2.6849700000 0.8716800000
H -1.3353700000 2.3898600000 -0.7763680000
H -2.1215700000 1.0096900000 1.1245600000
H -3.8460800000 0.4569850000 0.3433230000
H -4.0916000000 0.2752900000 -1.2930900000
H -1.7249900000 0.4093470000 -1.5845400000
H -1.3810800000 -1.7280100000 -0.7187480000
H -1.8396100000 -1.3393700000 1.6114400000
H -2.9210400000 -2.5480200000 0.9886490000
N -2.5644300000 -1.5751300000 0.9174320000
N -2.2357700000 -1.3246800000 -0.4055810000
N -3.4948500000 0.7107070000 -0.5831990000
N -1.3886000000 0.7343360000 0.4925400000
N 3.5646400000 0.4087420000 -0.4910870000
O 0.5368850000 -1.2703400000 0.1620720000
O 2.4912300000 -2.0367400000 -0.5820300000
