15
0 1
H 2.7434600000 -0.3353050000 -0.3227170000
H 2.8173600000 -1.9404500000 -0.9265500000
H 2.1910100000 1.5092200000 1.0420100000
H 1.1065700000 1.1807500000 -0.0409302000
H -1.5496200000 2.0902700000 0.0730991000
H -1.7470300000 0.7759190000 -0.6814630000
H -2.0541700000 -0.9064440000 0.3260550000
H -3.4181900000 -1.0108200000 -0.6324240000
H -0.5511900000 -0.1293510000 0.5213640000
H 0.3325670000 -1.3916200000 0.1563870000
O 2.4951800000 -1.3239700000 -0.2000690000
O 2.0017400000 1.5591800000 0.0550395000
O -1.0977400000 1.3138300000 -0.1779720000
O -2.8324500000 -0.4220270000 -0.1185070000
O -0.5505800000 -1.1072800000 0.5021550000
