26
0 1
C -1.5598000000 1.3215100000 -0.7399210000
C 1.6413000000 1.4111900000 0.2577810000
C 1.2996800000 -0.6121650000 1.6283000000
C -1.9613000000 -0.3586190000 0.9344180000
C -1.3379300000 -1.1093500000 -1.3476400000
C 1.9347600000 -0.7617890000 -0.7555190000
H 2.7321400000 -0.3085370000 -1.3894800000
H 2.2086700000 -1.7747200000 -0.4306380000
H -2.0184700000 -1.9837500000 -1.1792000000
H -1.4298300000 -0.7104100000 -2.3622500000
H -2.3388700000 -1.3768000000 1.0613200000
H -2.7605200000 0.3312190000 1.2923000000
H 1.9180100000 -1.4930900000 1.7635200000
H 1.4714600000 1.8710900000 1.2049000000
H 2.5875100000 1.7486800000 -0.1909820000
H -1.3853500000 1.4831200000 -1.8136500000
H -2.4611000000 1.8705900000 -0.4389970000
H 1.4998800000 0.0957168000 2.4498600000
N 1.6071300000 0.0282459000 0.3926000000
N -1.7150600000 -0.0775861000 -0.4254400000
O -0.0745432000 -1.7483700000 -1.2047600000
O -0.5562990000 2.0687500000 -0.0365165000
O 0.7007540000 1.9615200000 -0.6936060000
O 0.0177917000 -1.1558900000 1.7892400000
O -0.9294150000 -0.1167260000 1.9129700000
O 0.9206770000 -0.8533320000 -1.7175000000
