19
0 1
C 1.4045500000 0.0778544000 -0.0133963000
C 3.7971200000 -0.2276730000 -0.0063721100
C -1.0549000000 -0.2630300000 0.0399095000
C -1.4534600000 1.0627700000 0.0097054200
C -2.8136500000 1.3480500000 0.0045669000
C -3.7431300000 0.2524150000 0.0369232000
C -2.0287200000 -1.2847100000 -0.0431206000
H -1.7317000000 -2.3340700000 0.0175623000
H -4.8238700000 0.4611200000 -0.0026816300
H -3.1776400000 2.3774200000 -0.0231874000
H 0.3476720000 -1.6998300000 -0.0350151000
H 2.5074600000 -1.7453600000 0.0837735000
H 2.4618600000 1.6472800000 -0.0105681000
H -0.6951780000 1.8376700000 -0.0344932000
N 0.2552910000 -0.6990850000 0.0098714700
N 1.4819700000 1.3405700000 -0.0386418000
N 2.5639000000 -0.7569180000 -0.0195365000
N 4.8384600000 0.2649020000 0.0355726000
N -3.3589800000 -1.0549400000 -0.0107924000
