40
0 1
C 1.3795500000 -1.6879500000 0.0984935000
C -0.9391200000 3.2341900000 0.3538250000
C -1.4781800000 1.9682800000 1.0877300000
C -2.2349700000 0.9895810000 0.1739730000
C -3.1512000000 -1.3389000000 -0.1309520000
C 1.2761500000 2.3582100000 -0.5053750000
C 3.6110900000 -1.8350200000 -0.3473520000
C 3.5529800000 -1.1858400000 0.9888580000
C 2.0406000000 -1.2157900000 1.4141100000
C -0.0108255000 -1.1251000000 -0.2335660000
C -2.2427700000 -0.4732580000 0.7345680000
H -2.0069900000 2.3299200000 1.9947100000
H -3.4907000000 -3.0957100000 -0.6974060000
H 2.4629200000 0.9094720000 -1.1047600000
H 1.0692700000 1.0534600000 -2.0545400000
H 1.4912300000 3.2100200000 1.1432800000
H -0.3292400000 2.9075200000 -1.5928400000
H -1.7341900000 3.7878800000 -0.1975640000
H -0.6047510000 3.9792000000 1.0450100000
H -0.5639460000 1.4187600000 1.4475200000
H -3.3115000000 1.2429500000 0.0987101000
H -0.6343160000 -1.4703900000 1.6895300000
H -2.7583700000 -0.5143290000 1.7228100000
H 2.1430800000 -1.9181900000 -1.8062700000
H -1.8340200000 1.0179700000 -0.8630900000
H 1.7697000000 -1.8883700000 2.1804400000
H 1.7611500000 -0.2003920000 1.7195100000
H 1.3229000000 -2.7572800000 0.2417050000
H 3.9019700000 -0.1422110000 0.9342410000
H 4.5058700000 -1.5218200000 -0.8780830000
H 3.6051700000 -2.9437300000 -0.1934300000
H 4.2449100000 -1.6628100000 1.7046900000
N 2.3520700000 -1.3768500000 -0.9471990000
N -0.8823400000 -1.0623700000 0.8043400000
N 0.0706957000 2.9991700000 -0.6764310000
N 1.9552400000 2.5381300000 0.5674980000
N 1.7281700000 1.5299400000 -1.4559800000
O -4.2271500000 -0.9033730000 -0.5071990000
O -0.2992350000 -0.7333260000 -1.3478100000
O -2.7732100000 -2.6468600000 -0.1931970000
