38
0 1
C -0.6331750000 -1.4614500000 0.6968100000
C -4.4691000000 1.4315200000 0.2724270000
C -3.2237700000 0.5291710000 0.2344840000
C -2.0827900000 0.9760130000 -0.6948740000
C 3.9988600000 0.6552410000 -0.1188590000
C 3.6269000000 -0.3742170000 -0.9577410000
C -1.1830900000 1.9760200000 -0.0366508000
C 2.5295800000 -1.1821600000 -0.6133410000
C 2.3977300000 -0.0675676000 1.5168500000
C 1.8812900000 -1.0357300000 0.6215520000
C 0.7731080000 -1.9413700000 1.0533300000
C -0.8053440000 -1.3306200000 -0.7818730000
C 3.4240100000 0.8055590000 1.1084400000
H -1.6161300000 -0.3782910000 -2.2827300000
H 0.4352590000 1.2889000000 -0.9831700000
H -4.1699800000 2.4682900000 0.4771250000
H -5.1947800000 1.1159400000 0.9913870000
H -4.9539900000 1.4120400000 -0.7198260000
H -4.1334100000 -0.6579670000 -1.0682200000
H -2.8462500000 0.3454060000 1.2945000000
H -2.5713800000 1.4834500000 -1.5868900000
H 5.1645200000 1.5349400000 -1.4125200000
H 1.9020800000 0.1375880000 2.4562800000
H 3.7468100000 1.5404800000 1.8753500000
H 2.0533400000 -1.9179800000 -1.2751900000
H 0.9605770000 -2.9213100000 0.6069320000
H 0.8556370000 -2.1361800000 2.1182200000
H -0.7936490000 -0.4683250000 1.1682900000
H -2.5152900000 -2.0797800000 1.1611300000
H -1.5830600000 -3.2813000000 0.7093190000
H 4.1150700000 -0.5398370000 -1.9227200000
N -1.5902800000 -2.4073100000 1.2323600000
N -1.4041300000 -0.1719510000 -1.3282500000
O -3.6931800000 -0.7670980000 -0.1916620000
O -0.4507220000 -2.2253600000 -1.5418800000
O 4.9382100000 1.6119200000 -0.4827190000
O -1.6088200000 2.8610000000 0.6721040000
O 0.1520340000 1.9228300000 -0.2982670000
