15
0 1
H -0.0821835000 1.5031900000 0.3703820000
H 0.9817650000 2.0154600000 1.3756000000
H -1.8470500000 0.5029910000 -0.3256150000
H -1.5404300000 1.6998300000 -1.2686900000
H -2.5459500000 -1.5955600000 0.4100040000
H -1.0520400000 -1.3821800000 0.0116970000
H 1.1047100000 -1.3199300000 0.0296064000
H 0.4993930000 -0.5633310000 1.1822100000
H 3.1529800000 -0.3919640000 -0.5375720000
H 1.9029900000 0.4769510000 -0.4562630000
O 0.8222430000 1.3107700000 0.7511960000
O -1.6308600000 1.4869300000 -0.3401640000
O -1.9868100000 -1.2102400000 -0.2934300000
O 0.4425670000 -1.4217300000 0.7459560000
O 2.2810900000 -0.2839150000 -0.9624770000
