15
0 1
C 1.6306600000 -0.6357130000 -0.0101035000
C -0.5522110000 -0.8333200000 0.0293344000
C -2.7315600000 -0.4459930000 -0.0182846000
C -0.8292360000 0.5195890000 0.0310697000
C 0.2801290000 1.4382000000 -0.0022903100
H 3.5717700000 -0.4653200000 -0.0077076700
H -1.9344400000 -2.4367200000 -0.0276436000
H -3.7934200000 -0.6079910000 -0.0357112000
H 2.3371200000 1.3156500000 0.0272552000
N 0.6529210000 -1.4630000000 0.0211415000
N -1.7729400000 -1.4434200000 0.0014333500
N -2.1889700000 0.7492560000 -0.0159235000
N 1.5124800000 0.7216200000 0.0000954851
O 2.8722700000 -1.1520600000 -0.0213478000
O 0.3287170000 2.6503800000 -0.0013741100
