13
0 1
C 0.0153009000 0.1054570000 -0.0327707000
H -3.0223600000 -0.0863225000 -0.6416090000
H -2.5845800000 -0.0882874000 1.0840000000
H -1.1337000000 -1.5108300000 0.4835550000
H -0.8480490000 1.7214900000 -0.0088574400
H 1.0808000000 -1.4497200000 -0.6915710000
H 2.2118300000 0.9510930000 -0.2335520000
H 2.7067300000 0.0816844000 0.9887330000
N -2.3071300000 0.0927962000 0.1140760000
N -1.1431000000 -0.6877360000 -0.1725390000
N 0.1475910000 1.3700000000 -0.0923659000
N 1.0998900000 -0.7367210000 0.0114505000
N 2.4166800000 -0.0743159000 0.0273680000
