9
0 1
C 2.2329200000 -0.1966450000 -0.3670470000
H -0.4602100000 -0.2506780000 0.6433410000
H 2.5818900000 1.6769700000 -0.4458430000
H 2.7815900000 -0.2444710000 -1.3405100000
N -1.9824300000 -0.1989490000 -0.3786290000
O -1.3599400000 0.0865399000 0.8287830000
O -3.0845500000 0.1955340000 -0.3760790000
O 2.1486000000 1.0428300000 0.1349240000
O 1.7429200000 -1.1510700000 0.1618340000
