7
0 1
C -0.7770600000 -0.0038329500 -0.0046627700
H -0.0703458000 2.0312700000 0.0031227300
N 0.1187480000 1.0394400000 -0.0048184700
N 1.3844200000 0.5920120000 0.0039073300
N 1.3712600000 -0.6553200000 0.0024000300
O -1.9738300000 -0.0159825000 0.0048972300
O 0.0502951000 -1.0891700000 -0.0030932700
