12
0 1
C -0.1357320000 -0.3000530000 0.0542652000
H 1.9367600000 1.3128900000 -0.0445956000
H -0.7072410000 1.5815800000 -0.2986940000
H -1.6194100000 -1.6082400000 0.2779060000
H -2.9750100000 0.4845380000 0.3243160000
H 2.5377800000 -1.5818400000 -0.1554980000
N 0.1174210000 1.0016800000 -0.3762310000
N -1.4498900000 -0.6184550000 0.4420150000
N 0.7234270000 -1.2459200000 0.1164700000
O 1.1278800000 1.6416400000 0.3767490000
O -2.3882000000 0.0986954000 -0.3409530000
O 1.9984200000 -0.7840540000 -0.2488960000
