14
0 1
C -0.1813450000 0.1402060000 0.3537830000
C 1.2818600000 -0.3012610000 0.0265048000
C -1.2619800000 -0.7791260000 -0.1040020000
H -0.5958160000 1.5526200000 -1.1219500000
H -0.8977390000 2.2060200000 0.3090170000
H -0.2446800000 0.2206960000 1.4547600000
H -1.2372000000 -1.7665100000 0.2510590000
H -1.0554600000 -0.9182360000 -1.1781500000
H -3.1212800000 -0.7571720000 -0.2568060000
H 1.4694900000 1.5311900000 0.0277431000
N -0.3444880000 1.4607600000 -0.1303900000
O 1.5822500000 -1.4603000000 -0.0612045000
O -2.5214900000 -0.0910747000 0.0678409000
O 2.0721000000 0.7197710000 -0.0354680000
