33
0 1
C 1.8857600000 -1.0629400000 -0.1595770000
C -2.1302900000 -1.0409700000 1.4407300000
C -2.6923900000 -0.8347240000 0.0823820000
C -1.8222800000 1.5909500000 -0.1196330000
C -1.7162400000 0.1550860000 -0.7446420000
C -2.9947700000 -2.1492300000 -0.6438950000
C 3.6941400000 0.2765960000 0.5819030000
C 2.9893500000 -0.9436190000 0.8764150000
C 0.5954240000 -0.2863540000 0.1895300000
C 3.3439200000 0.7557340000 -0.7735550000
H -3.6473300000 -0.1803860000 0.0060252700
H -0.0963875000 1.5121000000 0.6883690000
H -3.7200300000 -2.7546200000 -0.0534242000
H -3.5038000000 -1.7996900000 -1.5365300000
H -2.1512400000 -2.7942300000 -0.8227610000
H -1.2110200000 -1.6358600000 1.2724200000
H -1.9194900000 -0.1012200000 1.8613000000
H -2.6948100000 -1.7369300000 2.0408400000
H -2.1438000000 0.1553060000 -1.7971800000
H 4.2840500000 1.1643200000 -1.4452200000
H 2.7926500000 1.7044100000 -0.8275600000
H 3.2161300000 1.0634900000 1.1877700000
H 4.8282300000 0.0800018000 0.5630130000
H 2.5623800000 -0.9114800000 1.9994300000
H 3.5904900000 -1.9031900000 0.7584840000
H 1.6353600000 -2.1202900000 -0.5110170000
H 1.9145300000 -0.0762221000 -2.0377200000
H -0.0924890000 -0.9023120000 -1.6859300000
N 2.6118700000 -0.3157250000 -1.3291800000
N -0.3087490000 -0.3113560000 -0.8654420000
O -2.9654900000 2.0627500000 -0.2612530000
O 0.5021870000 0.3272320000 1.2148900000
O -0.8718270000 2.2179200000 0.4618660000
