9
0 1
C -0.4491140000 0.0871327000 0.0647176000
H -1.7389700000 -1.2304200000 -0.7169050000
H -2.5046600000 0.2162530000 0.0419238000
H 0.7096610000 -1.3443400000 0.8775630000
H 1.4992000000 0.8040930000 0.2224410000
N -1.7233900000 -0.4423580000 -0.0025328400
N 0.6139410000 -0.7803210000 0.0277251000
O -0.2720100000 1.2575000000 0.0153266000
O 1.8339600000 -0.0587033000 -0.1390360000
