19
0 1
C 2.0968900000 0.1182490000 -0.4283900000
C 1.8134300000 -0.3687480000 1.0074700000
C 0.5259780000 -1.2684500000 1.0268100000
C -0.6464470000 -0.6960630000 0.2397420000
C -1.6388600000 -1.3617300000 -0.3641500000
C -2.7745900000 -0.3863700000 -0.7033420000
C -1.0900600000 0.7057970000 0.4140700000
H -3.6790300000 -0.6475730000 -0.1551250000
H -2.9417800000 -0.2932070000 -1.7908000000
H -1.7650400000 -2.4399100000 -0.4210460000
H 0.8422000000 -2.2330300000 0.5546090000
H 2.6539600000 -0.9859650000 1.4056600000
H 1.6574400000 0.5573920000 1.5853000000
H 1.0394800000 1.6461700000 0.0026958600
H 0.2662460000 -1.3997900000 2.0779300000
O -2.2811200000 0.8260360000 -0.2216340000
O 1.5912200000 1.2775200000 -0.7307140000
O 2.6633200000 -0.5656110000 -1.2224100000
O -0.4473510000 1.6295300000 0.8731990000
