7
0 1
C -1.0475800000 -0.2642960000 -0.0264956000
H -2.1018300000 -0.5323560000 -0.0289694000
H 1.8291700000 -0.7943380000 0.0579447000
N -0.6100790000 0.9922390000 0.0312297000
N 0.6832920000 0.9151940000 -0.0163821000
N 0.9589390000 -0.3336020000 -0.0161541000
N -0.0952772000 -1.1577700000 0.0198777000
