7
0 1
H 1.1193000000 0.8982980000 0.1697610000
H 2.7726100000 -0.8160030000 -0.8022240000
H 2.7049700000 -0.8540500000 0.8069400000
N -2.1670700000 -0.0567765000 0.0084515200
N -3.2507000000 -0.0228882000 -0.0123014000
N 2.1471200000 -0.6799770000 0.0004229340
O 2.0372000000 0.7611550000 -0.0188111000
