27
0 1
C 1.5628500000 2.7666700000 0.2487660000
C -0.0174895000 0.9564140000 0.0159111000
C -1.4995400000 -0.7058540000 -0.2653840000
C -3.9186800000 -0.2290050000 -0.2554040000
C 0.6971700000 -1.2142900000 -0.2132750000
C 3.0713300000 -1.7923900000 -0.0563135000
H 2.7198800000 -0.5106300000 1.4090400000
H 3.7508200000 -2.6522900000 -0.1828340000
H 3.4594500000 -1.0329700000 -0.7552180000
H 1.5121100000 -2.9955200000 -0.9306180000
H -4.7974200000 -0.8142000000 -0.5933830000
H -3.2881400000 0.8876430000 1.1548800000
H -3.0005100000 -2.0972300000 -0.3943100000
H -0.4283350000 2.8185100000 -0.3063540000
H 1.4364200000 3.8275900000 0.5358900000
H 2.1846000000 2.2532800000 0.9979270000
H 2.3018800000 1.6665300000 -1.1010600000
H -3.7848500000 0.6467820000 -0.9392710000
N 0.1763040000 2.2740300000 0.3420320000
N -1.3492700000 0.6180860000 0.0580889000
N -2.7777800000 -1.1139100000 -0.4771860000
N -0.5356060000 -1.6283700000 -0.4290750000
N 1.7057600000 -2.1473700000 -0.3117730000
N 1.0300900000 0.1143480000 -0.0838601000
O -4.0404100000 0.2410340000 1.0830700000
O 2.1029500000 2.6126900000 -1.0586900000
O 3.2891800000 -1.2917900000 1.2971000000
