36
0 1
C -1.7455000000 -0.5014960000 -0.6268170000
C 2.1248700000 0.9212670000 0.8351440000
C 2.0843300000 -1.0367200000 -0.8174650000
C 1.2647000000 -0.0437007000 0.0114962000
C -1.2090300000 2.5114600000 -1.0887100000
C 3.1165500000 0.2393280000 1.7072600000
C -3.7030100000 0.2741670000 0.7582370000
C -2.7395100000 0.6701890000 -0.3679610000
C -0.9991200000 -0.9265350000 0.6794470000
C -2.0506200000 1.9439700000 0.0217199000
H -0.4210560000 1.8309200000 -1.3419300000
H 3.3872700000 0.3184750000 -0.8979050000
H 3.8330500000 -0.3984520000 1.0435300000
H 3.6951300000 1.0003600000 2.2645900000
H 2.6194000000 -0.4263150000 2.4595100000
H 3.1661200000 2.5124200000 0.2356600000
H 1.4594600000 1.5403800000 1.4318300000
H 0.7605480000 0.5147720000 -0.7257680000
H 0.6486360000 -1.2997800000 1.6392600000
H -0.6999030000 3.4592100000 -0.8528620000
H -1.4111900000 1.7457400000 0.8974020000
H -2.7709500000 2.7409300000 0.3529550000
H -3.2632500000 0.2359010000 1.7392200000
H -4.4893700000 1.0135400000 0.8319840000
H -4.2170500000 -0.6635660000 0.5390840000
H -3.3713000000 0.7927390000 -1.2472400000
H -1.0517200000 -0.2233770000 -1.4711200000
H -2.1112000000 -2.2661900000 -1.6755400000
H -2.8201400000 -2.2136800000 -0.1716000000
H -1.7705000000 2.5983700000 -1.9971000000
N -2.5954200000 -1.6774400000 -1.0040700000
N 0.3154390000 -0.6901870000 0.8749510000
O 2.7402900000 1.7644000000 -0.1932730000
O -1.6796300000 -1.6243000000 1.4229100000
O 1.7625100000 -2.1887300000 -0.9675200000
O 3.1675700000 -0.5201900000 -1.3651400000
