34
0 1
C -1.9576600000 0.2274920000 0.8891570000
C 1.9479800000 2.7915300000 -0.0462827000
C 2.0720100000 0.8745430000 -0.8812870000
C 1.6205500000 -0.4867750000 -1.3636600000
C 2.3706800000 -1.8611500000 0.6031310000
C 3.3210000000 1.2696600000 -0.6780360000
C -4.2778800000 0.1398130000 -0.1474860000
C -3.0068900000 0.9943380000 0.0562351000
C -1.1284000000 -0.7232450000 0.0456903000
C 1.1872400000 -1.5113600000 -0.2920300000
H 2.4315800000 -0.9208090000 -1.9555900000
H 3.9158100000 -2.8760400000 0.6765570000
H 3.9888400000 3.1456800000 0.2504490000
H 1.5928100000 3.7683200000 0.2302260000
H 4.2591700000 0.7959430000 -0.8987360000
H 0.7255900000 -0.3691890000 -2.0026400000
H 0.9139660000 -2.4094800000 -0.8348930000
H -3.3137100000 -1.0430400000 -1.6098900000
H -5.0329100000 -1.3221000000 -1.3354200000
H -2.6018400000 1.2636600000 -0.9297380000
H -3.2824700000 1.9026000000 0.6180660000
H -2.5307900000 -0.3073070000 1.6330000000
H -0.4381380000 1.5077000000 0.8594080000
H -1.5550200000 1.8881700000 2.0445900000
H 0.4247060000 -0.2989480000 1.2574200000
N -1.0839900000 1.1335900000 1.5414200000
N -4.2207400000 -0.7219340000 -1.2343300000
N 0.0982221000 -0.9586740000 0.5421780000
N 1.1537400000 1.8180900000 -0.4195710000
N 3.2592500000 2.5161000000 -0.0860540000
O 2.5626900000 -1.5160900000 1.7264800000
O -1.4857400000 -1.2046900000 -1.0309300000
O -5.2083200000 0.2028280000 0.6231940000
O 3.2770300000 -2.6725900000 -0.0088575300
