10
0 1
C 0.7454000000 0.2382370000 -0.0069937700
C -0.7303200000 -0.2331150000 -0.0129298000
H 2.5787400000 -0.6478840000 0.0920177000
H 1.1817000000 -1.7474400000 0.0088942100
H -2.5857100000 0.6582390000 0.0350395000
H -1.2109000000 1.7398100000 0.0017136900
N 1.5872500000 -0.8215400000 0.0191687000
N -1.5981400000 0.8095090000 0.0328902000
O 1.0455300000 1.4182600000 -0.0254057000
O -1.0427800000 -1.4119200000 -0.0224112000
