9
0 1
C 1.0137200000 0.0889060000 0.0032138400
C -1.0279200000 1.1109700000 0.0023867800
H -1.6715700000 1.9861100000 0.0400816000
H 0.6938650000 -1.9773000000 -0.0082897800
N 0.2495410000 1.2508900000 0.0136058000
N -1.7578600000 -0.0759960000 -0.0299460000
N -1.1072600000 -1.1603400000 -0.0014693400
N 0.2288950000 -1.0846100000 0.0335123000
O 2.2212200000 0.0352917000 -0.0219144000
