15
0 1
C -2.1544100000 -0.0653233000 0.0393943000
C -1.1216200000 0.5502350000 -0.9354050000
C 1.2510900000 0.7107520000 -0.0272494000
C 1.4532900000 -0.8248950000 0.0180906000
H -1.1185500000 0.6485480000 1.4928300000
H -0.7258450000 -0.2751330000 -1.5485000000
H -1.6647200000 1.2631100000 -1.5321900000
H 0.0515233000 2.2042200000 -0.3395670000
H 3.2993400000 -0.2788980000 0.1455970000
N -0.0197580000 1.2047900000 -0.1996290000
O -1.9802400000 0.2368770000 1.3507600000
O -3.0885100000 -0.7427120000 -0.3752400000
O 2.1925900000 1.4671800000 0.0930350000
O 2.7559500000 -1.1046300000 0.1281530000
O 0.5860250000 -1.6342200000 -0.1204220000
