21
0 1
H 0.9336030000 -1.2049700000 0.5016890000
H -2.0137600000 -0.4396850000 -1.2197700000
H -2.7357700000 -1.1945300000 -0.1177330000
H -2.4524300000 0.6791590000 0.6771980000
H 1.9484500000 -0.0029466700 2.2321900000
H 2.5480700000 -1.3195000000 1.8567000000
H -0.6179430000 1.8026600000 0.3459340000
H -3.8449100000 1.3354900000 0.4628590000
H 3.2192600000 -0.0798234000 -1.9925600000
H 1.9791900000 -0.8750900000 -1.0071800000
H 2.1118600000 1.2756700000 -0.4083310000
H 1.1363300000 2.2884300000 -0.8329320000
H -0.5643770000 -1.4941000000 -0.4360290000
H -0.1801750000 0.3847240000 -0.0415492000
O -3.4091800000 0.5142590000 0.6556570000
O 0.3939180000 -1.2641800000 -0.3113480000
O 1.5314100000 2.0080600000 -0.0225797000
O 2.7121100000 -0.2281060000 -1.1191600000
O -0.9489600000 1.0376500000 -0.2177340000
O 1.7162700000 -0.9034180000 1.9482300000
O -2.1790000000 -1.3087100000 -0.9356280000
