14
0 1
C -3.0151400000 -0.0070144100 -0.0422956000
C -0.7195510000 -0.0352931000 0.0444662000
C 1.7891400000 -0.1588860000 -0.0239311000
H -3.2200300000 0.2011820000 0.9419610000
H -2.9900500000 0.8338550000 -0.7256000000
H -3.8020900000 -0.6993910000 -0.3383970000
H 0.4166030000 -1.6938600000 0.0796428000
H 0.9507240000 1.7767900000 -0.2557640000
H 2.7196200000 1.5082900000 -0.2368580000
N 0.4853960000 -0.6855220000 0.0658209000
N 1.7809100000 1.1932600000 -0.0012527200
O -1.7673800000 -0.8316420000 -0.0571255000
O -0.7552320000 1.2161500000 0.0979352000
O 2.7394100000 -0.9187410000 -0.0141096000
