16
0 1
C -0.7833550000 -0.5835850000 0.7113620000
C -1.0869300000 0.7220590000 -0.0119158000
C 0.6728190000 -0.6289800000 1.1533100000
C 1.5513700000 -0.0941655000 -0.0324963000
H -2.2954700000 -1.7083200000 0.0951960000
H -1.1519200000 -1.7410500000 -0.9632880000
H -1.2899300000 -0.5454280000 1.7061000000
H 0.8183480000 0.0146837000 2.0196000000
H 0.9963800000 -1.6527800000 1.4306100000
H 1.5738800000 -0.7036530000 -1.9144700000
H -0.7170020000 2.5483800000 -0.0752356000
N -1.3066500000 -1.7646500000 0.0280934000
O -1.8418100000 0.8208800000 -0.9634400000
O 2.4256500000 0.7104370000 -0.1454110000
O 1.0451000000 -0.8830550000 -1.0772800000
O -0.4928420000 1.8078300000 0.5090400000
