30
0 1
C -1.6210600000 -0.4818070000 0.1228360000
C -0.3905560000 0.1595250000 -0.4888610000
C -2.7829100000 0.4320980000 -0.2138190000
C -4.1033700000 -0.2015050000 -0.1171400000
C 2.0366400000 -0.0062680400 -0.5436840000
C 3.1713800000 -1.0386400000 -0.6092590000
C 2.6015100000 1.1830500000 0.3091690000
C 1.9051800000 2.5374300000 0.2856260000
H 3.6450500000 -2.8119500000 -0.0615525000
H 2.4226800000 3.2105100000 1.0419200000
H 0.8459980000 2.5440900000 0.5137830000
H 1.9871100000 2.9915100000 -0.7021930000
H 1.8260100000 0.5726280000 1.9729000000
H 3.6291300000 1.3248600000 -0.0041335400
H 1.9284500000 0.3664020000 -1.5793600000
H 0.6457340000 -1.0592700000 0.6589650000
H -5.8774800000 0.0459963000 -0.6947990000
H -2.8142500000 1.2712500000 0.5277870000
H -2.6728600000 0.9647770000 -1.1541900000
H -1.8258600000 -1.4651800000 -0.2882400000
H -1.4657500000 0.1811040000 1.9977700000
H -2.3005000000 -1.2136700000 1.8229200000
N -1.4470500000 -0.7527430000 1.5476900000
N 0.7995710000 -0.3926360000 -0.0636082000
O -0.4972980000 1.1037900000 -1.2719000000
O -4.3301600000 -1.1529500000 0.5692310000
O -5.0434600000 0.5066320000 -0.7786320000
O 4.2608600000 -0.7388700000 -0.9538430000
O 2.7233300000 0.7662460000 1.6760000000
O 2.8439700000 -2.2859400000 -0.1045380000
