8
0 1
H 0.7432220000 0.0497442000 -0.7845310000
H 0.8027780000 0.5215450000 0.7284770000
H 2.8510500000 -0.1957410000 0.9689160000
H 3.1727900000 -0.0317397000 -0.5751540000
N -2.0585100000 -0.5006100000 -0.0746580000
N -2.8209500000 0.2836520000 0.0923628000
N 1.3426500000 0.5512920000 -0.1209710000
N 2.4554000000 -0.3834490000 0.0550223000
