36
0 1
C -0.7268660000 2.1173100000 -0.4411580000
C 3.1387500000 -1.4886200000 -0.8651870000
C 2.6836400000 -0.1396270000 -0.3113660000
C 0.9148070000 -1.3074700000 1.1008300000
C 1.2986100000 -0.0513951000 0.2690070000
C 2.9064200000 1.0376500000 -1.2553500000
C -2.8862400000 -0.8156920000 0.4342860000
C -2.3080800000 0.1096770000 -0.4087600000
C -2.1777100000 1.5695800000 -0.2695220000
C -0.0349465000 1.9094000000 0.9713080000
C -1.9204100000 -1.8234700000 -1.2441700000
H 3.3008500000 -0.0044757500 0.6067700000
H 0.1957340000 -3.0752000000 1.0177900000
H 2.4772300000 -1.7803000000 -1.6465300000
H 3.1451400000 -2.2414400000 -0.0734108000
H 4.1652100000 -1.4194100000 -1.2841200000
H 2.7172100000 2.0026900000 -0.8051600000
H 2.2596000000 0.9217120000 -2.1408000000
H 3.9708000000 1.0317800000 -1.5459500000
H 0.5086960000 -0.0732430000 -0.4662130000
H -1.6324000000 -2.6420100000 -1.8380900000
H -2.7584400000 -2.9298100000 0.3211060000
H -3.3908300000 -0.6877860000 1.3807200000
H -2.4844700000 1.8588700000 0.7399850000
H -2.8397800000 2.0437300000 -0.9901530000
H -0.8695310000 3.2103100000 -0.4647560000
H -0.1518140000 2.4965900000 -2.2969000000
H -0.3960800000 0.9212430000 -2.0610700000
H 1.2319300000 1.0386000000 2.0254200000
N 0.0019942500 1.7498100000 -1.6487600000
N -1.6647600000 -0.5475360000 -1.4123500000
N -2.5748400000 -2.0196500000 -0.0984501000
N 1.1101000000 1.1137400000 1.0591200000
O 0.8723090000 -1.2930100000 2.2870800000
O -0.5464700000 2.5106300000 1.8966800000
O 0.5636280000 -2.3989200000 0.3593550000
