9
0 1
H -3.3354200000 -0.2251520000 -0.0788275000
H -1.5142700000 -0.7460370000 1.0613400000
H -1.2378200000 -0.9820560000 -0.5541850000
H 2.8602800000 1.0690700000 0.5159990000
H 1.0313500000 0.3033890000 0.2363460000
N -1.3929200000 -0.2577440000 0.1571010000
N 2.9143100000 0.1713470000 -0.0137014000
N 1.7774100000 -0.3052490000 -0.1612940000
O -2.6119700000 0.4152890000 -0.1319270000
