34
0 1
C 0.2903650000 2.0010300000 0.6482790000
C -2.5700900000 0.3007360000 -1.3417000000
C -2.9212500000 -1.1005400000 0.5548880000
C -0.5921390000 -1.5802400000 0.5958810000
C -1.5760100000 -0.4189790000 0.6839470000
C -3.1521500000 -1.0335100000 -0.9544370000
C 2.1868100000 0.6529240000 -0.5896010000
C 1.4422300000 0.9737650000 0.7205700000
C -0.7925690000 1.6542200000 -0.4314800000
C 3.1021800000 -0.5650920000 -0.4532430000
H -2.9251100000 -2.1410700000 0.9526680000
H 1.0563700000 -1.8529400000 -0.4842830000
H -3.2719200000 1.1100200000 -1.3853000000
H -2.1127700000 0.3118790000 -2.3389100000
H -2.6469000000 -1.8241100000 -1.5009900000
H -4.2689500000 -1.0300200000 -1.2382600000
H -3.7142400000 -0.5229060000 1.0637100000
H -1.4034700000 0.1347690000 1.6003100000
H 1.4799200000 0.3799890000 -1.3938900000
H 4.8381800000 0.6299510000 -0.2638870000
H 2.8094400000 1.5124000000 -0.8974360000
H 2.1689100000 1.2418300000 1.4804100000
H 1.0435100000 0.0895195000 1.2097700000
H 0.6313930000 2.9914100000 0.3602830000
H 0.4359940000 2.3782800000 2.7290600000
H -1.0536400000 2.7367200000 2.0864200000
H 5.0151100000 -1.1672100000 -0.2611700000
N -0.2659450000 2.0944800000 2.0253300000
N 4.4653800000 -0.3285490000 -0.4248450000
N -1.5519300000 0.5487250000 -0.3545530000
O -0.6571220000 -2.4335100000 1.4303700000
O -0.8296050000 2.3589200000 -1.3937000000
O 2.7289500000 -1.7067700000 -0.3400030000
O 0.1179450000 -1.5295200000 -0.5764880000
