9
0 1
C -0.4610620000 0.1084460000 0.0201873000
H -1.7739400000 -1.2681200000 -0.5029910000
H -2.4162500000 0.2406040000 -0.2485920000
H 0.5817150000 -1.5437800000 0.5524960000
H 1.5160600000 0.8549640000 -0.1614160000
N -1.7427300000 -0.4446850000 0.1156790000
N 0.6229110000 -0.7981370000 -0.1262390000
O -0.2282990000 1.3112900000 0.0073955700
O 1.8154900000 -0.0906094000 0.0317664000
