10
0 1
C 1.1948300000 -0.3716010000 -0.0316625000
C 0.0066633300 1.5172300000 0.3088630000
C -1.2150700000 -0.3741880000 -0.0432622000
H -0.0731158000 1.3126000000 1.3619800000
H -0.0530708000 2.5733100000 -0.0611593000
O 2.1852500000 -1.0656800000 -0.1168740000
O 1.1842600000 0.9664020000 -0.2251710000
O -1.1664700000 0.9623810000 -0.2737020000
O -2.1710500000 -1.0663900000 -0.0941875000
O -0.0060351500 -0.8610400000 0.3718780000
