30
0 1
C 1.7652300000 1.1291500000 0.3339510000
C 0.5730360000 1.9517500000 -0.1127130000
C 2.2642300000 0.3101280000 -0.8598510000
C 2.5375000000 -1.1198300000 -0.4241230000
C -0.9847860000 -0.0394926000 -0.0709553000
C -1.9169700000 -0.3836280000 -1.2837900000
C -1.6203200000 -0.3429680000 1.2665700000
C -2.8332600000 0.6238060000 1.5849300000
H -1.9790800000 -1.9971100000 -0.3826910000
H -3.6209600000 0.7157300000 0.8057350000
H -2.4539000000 1.6089200000 1.7756100000
H -3.4602900000 0.2709100000 2.4862300000
H -2.7233600000 -1.9134600000 1.6923600000
H -0.8619640000 -0.1146200000 2.0625500000
H -0.1039120000 -0.6870540000 -0.2126550000
H -1.3507000000 1.9108500000 -0.5927710000
H 3.7760100000 -2.2109000000 0.5106990000
H 1.5656400000 0.2558620000 -1.7341700000
H 3.1813900000 0.7204800000 -1.2350000000
H 2.4992100000 1.8487500000 0.6628310000
H 2.1782500000 -0.2904490000 1.7350400000
H 1.2980500000 0.9668240000 2.3133400000
N 1.3884100000 0.3550720000 1.5159100000
N -0.6399610000 1.3548900000 -0.1786820000
O 0.7232510000 3.0983600000 -0.3588860000
O 1.7066300000 -2.0351100000 -0.5054140000
O 3.6746800000 -1.2818800000 0.2497420000
O -2.2686200000 0.4204070000 -2.1146000000
O -1.8580300000 -1.7708800000 1.2997200000
O -2.2143500000 -1.6594000000 -1.3020500000
