29
0 1
C 0.2357110000 1.0906200000 -0.2983640000
C -1.1136900000 1.6668800000 0.1352200000
C 1.2241100000 1.1121800000 0.9186180000
C 2.6559800000 0.7080920000 0.4831380000
C 2.8652900000 -0.7500760000 0.2083790000
C -1.5986800000 -0.7341540000 0.7275470000
C -1.8578600000 -1.2576900000 -0.7301470000
C -2.6162900000 -1.3504800000 1.6838400000
H -0.2093580000 -2.1696100000 -0.4488320000
H -3.6925800000 -1.2004500000 1.4702000000
H -2.4156200000 -0.8719730000 2.6738300000
H -2.5344900000 -2.4655300000 1.8077800000
H -0.5924960000 -1.0983100000 0.9625850000
H -2.6895100000 1.0144300000 1.1673400000
H 4.0673900000 -2.0501300000 -0.2092060000
H 2.9608700000 1.3110900000 -0.3820340000
H 3.3634200000 1.0538000000 1.2883600000
H 1.2901100000 2.1128600000 1.3347800000
H 0.8645010000 0.5070320000 1.7720600000
H -0.0189098000 0.1368650000 -0.7191490000
H 0.2630760000 1.7520000000 -2.2872400000
H 0.7824410000 2.8998000000 -1.2830400000
N 0.8003990000 1.9020100000 -1.4442900000
N -1.8623400000 0.7129320000 0.7166970000
O -1.4413400000 2.8419200000 -0.0146258000
O 1.9702700000 -1.4122900000 -0.2930390000
O 4.1289000000 -1.1711500000 0.2228830000
O -2.8467200000 -0.9672860000 -1.3459700000
O -0.9076920000 -2.0597700000 -1.1722100000
