19
0 1
C -2.4855600000 -0.0566339000 -0.1885940000
C -1.0386200000 0.0576878000 0.2341760000
C -0.9958130000 -0.2153170000 1.7646400000
C -0.1876150000 -1.1474500000 -0.3662120000
C 1.8040500000 -0.0153161000 -0.0058172000
C -0.2813260000 1.2504100000 -0.2808120000
H 1.5618500000 2.0507200000 -0.0951992000
H 1.5383700000 -2.0593000000 0.3442660000
H -0.0181952000 -0.1225920000 2.2057400000
H -1.6685000000 0.4736960000 2.2881700000
H -1.2827900000 -1.2135200000 1.9129100000
H -2.6731600000 -0.4297060000 -1.2347400000
H -3.0123100000 0.8298660000 -0.0023187800
H -3.0080600000 -0.8574590000 0.4244960000
N 1.0717600000 -1.1453300000 0.0549131000
N 1.1235700000 1.1521100000 -0.2022980000
O -0.7288130000 -2.0218500000 -1.0454900000
O 3.0216900000 -0.0439215000 0.1585560000
O -0.7547880000 2.3208400000 -0.5825570000
