17
0 1
C -0.1903070000 1.5434600000 -0.0122762000
C 0.8492150000 0.4817500000 0.0065740800
C 2.1808900000 0.9167950000 -0.0126138000
C 3.1703900000 -0.0163308000 0.0339655000
C -3.1184500000 -0.6222170000 -0.0742729000
C 1.5283200000 -1.8637600000 -0.0725588000
C 0.4935180000 -0.8819880000 0.0428805000
C -1.7232600000 -0.2615880000 0.0331305000
C 2.7909600000 -1.3773500000 0.0136096000
H 1.2503000000 -2.8585400000 -0.3068780000
H 3.5749700000 -2.1052600000 0.0447313000
H 4.2641300000 0.2993610000 0.0469471000
H 2.3616900000 1.9752800000 0.0310959000
N -0.8123600000 -1.1972100000 0.0152507000
N -4.2298500000 -0.9095550000 -0.0688943000
O -0.0339031000 2.7385000000 -0.1806670000
O -1.4715100000 1.0019900000 0.2817890000
