8
0 1
C 1.0969100000 0.5602540000 -0.0088733600
C -1.0444800000 0.6572740000 -0.0141299000
H 2.0760900000 0.9789100000 0.0300679000
H -2.0415000000 1.0595200000 0.0837236000
N 0.0376255000 1.4004900000 -0.0091487100
N -1.1599700000 -0.6713720000 0.0148553000
N -0.0443064000 -1.3382500000 -0.0269372000
N 1.1167700000 -0.7256710000 0.0246917000
