20
0 1
C 0.9701470000 0.1952390000 0.3927390000
C 2.3762500000 -0.3399190000 -0.0818065000
C -0.0339948000 -0.9459450000 0.1186860000
C -1.4746500000 -0.7879000000 0.6565030000
C -2.5969800000 -0.0500205000 -0.0498326000
H 3.2491300000 1.1551400000 0.9903950000
H -3.0427700000 1.7652400000 -0.7904490000
H -1.9078800000 -1.8287500000 0.6638010000
H -1.4676900000 -0.5256190000 1.7259400000
H -1.5422200000 1.7046700000 -0.0304190000
H 1.3649500000 2.2155500000 -0.0615514000
H 0.6392110000 1.3278700000 -1.1499100000
H 0.9734700000 0.4814120000 1.4383700000
H -0.0400056000 -1.1195800000 -0.9448220000
H 0.3608460000 -1.8541300000 0.5883370000
N 0.6637130000 1.5119200000 -0.2097870000
N -2.4780800000 1.3104000000 -0.1451580000
O -3.6195700000 -0.6904850000 -0.2852880000
O 2.5943900000 -1.2826000000 -0.7300800000
O 3.3587800000 0.5347360000 0.2450150000
