28
0 1
C -1.7297100000 -0.6500620000 0.3801530000
C -0.3693690000 -0.5340930000 -0.1614250000
C -2.7956800000 -0.1474920000 -0.6400300000
C -4.1500300000 -0.3633950000 -0.1085980000
C 1.9609600000 -0.1823830000 0.5034950000
C 1.8992600000 1.2987300000 0.2251260000
C 2.7735400000 -0.9625390000 -0.4926080000
H 2.8686300000 2.7842200000 -0.2858100000
H 2.0013000000 -2.6415100000 0.0756010000
H 2.3082700000 -0.7709350000 -1.4593300000
H 3.8652100000 -0.6388540000 -0.5545330000
H 2.3882400000 -0.2833780000 1.5189200000
H 0.2642030000 -0.7832610000 1.6788900000
H -4.3966100000 -1.4034400000 0.0639152000
H -4.3546800000 0.2376590000 0.7458990000
H -4.8593100000 -0.0363060000 -0.8907070000
H -1.7368100000 1.2784600000 -1.4060100000
H -2.6559300000 -0.7164930000 -1.5801400000
H -1.9500900000 -1.7177500000 0.5201120000
H -2.6869700000 -0.2829400000 2.1537500000
H -1.8031300000 0.9156780000 1.5746000000
N -1.8169300000 -0.0827869000 1.7011700000
N 0.6286230000 -0.7620180000 0.7261800000
O -0.1120390000 -0.3219280000 -1.3375300000
O -2.5850100000 1.2280100000 -0.9122830000
O 1.0191300000 2.0320800000 0.5989720000
O 2.8656000000 -2.3528900000 -0.1861890000
O 3.0038300000 1.8172100000 -0.3358780000
