9
0 1
C -0.6842430000 -0.7808810000 0.0647617000
C 0.5151230000 0.1146580000 -0.0292300000
H -1.6141300000 0.9203920000 0.1318610000
H -0.5959240000 -1.3597200000 0.9932130000
H -0.6814670000 -1.5741300000 -0.7465760000
H 1.7667900000 -1.3308000000 -0.1244290000
O -1.8428700000 -0.0212688000 -0.0652358000
O 1.7748400000 -0.3855650000 -0.0093859400
O 0.3354560000 1.3245300000 0.0162143000
