18
0 1
H 0.6915240000 -1.8594200000 1.6331400000
H -1.5358500000 -1.2230200000 -0.3087590000
H -1.5967600000 -2.7299700000 -0.4561670000
H -0.3287090000 1.9092700000 0.1155190000
H -0.8450350000 2.1450600000 1.5293000000
H -2.1108400000 0.8271610000 0.2465050000
H 0.3046520000 -1.9469700000 0.1453110000
H -2.9630700000 0.1573630000 -0.9377330000
H 3.1820900000 -0.3021140000 -0.8324860000
H 2.2340200000 -0.7695390000 0.2694420000
H 1.7280100000 1.2146400000 -0.4673050000
H 1.4593500000 2.7259500000 -0.4595720000
O -1.1725100000 2.0091200000 0.6122020000
O 2.7817700000 0.0086855700 -0.0406423000
O -1.0796800000 -2.0016100000 -0.7761360000
O -2.6832800000 -0.0003713210 0.0540396000
O 1.1105000000 -1.9364000000 0.7728620000
O 1.0157700000 1.9020200000 -0.6819740000
