14
0 1
C -2.1011200000 -0.4529280000 -0.0137840000
C -0.6675000000 0.0266631000 0.0320927000
C 0.4855470000 -0.7592080000 0.0576408000
C 1.4615500000 0.2420520000 0.0100192000
C 2.8714400000 0.0377267000 0.0103976000
H -3.8046200000 0.3324770000 0.2417800000
H 0.4249420000 -1.8117100000 0.0675042000
H 3.4877800000 0.9329720000 0.2116330000
H -0.8152050000 2.2376800000 -0.1582140000
N 0.9964100000 1.4445500000 -0.1364780000
N -0.3390630000 1.3462700000 -0.0320249000
O -2.8986400000 0.6544520000 0.1313150000
O -2.5060300000 -1.5676400000 -0.1318600000
O 3.3804500000 -1.0609400000 0.0303715000
