28
0 1
C -1.6197800000 -0.3480170000 0.0474769000
C -0.4866100000 -0.4187290000 -0.9737270000
C 0.8663600000 -0.9680480000 -0.5824880000
C 2.7074900000 -1.0359900000 0.8752600000
C 3.6332900000 -0.7935660000 -0.2792380000
C 3.0765600000 1.4929500000 0.2782450000
C 1.6840100000 1.1464300000 0.6193070000
H 1.0068900000 1.5221300000 -0.1305090000
H 1.4295900000 1.6087500000 1.6021900000
H 3.1440400000 2.5258700000 -0.1378230000
H 3.7519100000 1.5895100000 1.1949200000
H 3.2918600000 0.7861340000 -1.6005900000
H 4.6585500000 -1.0974600000 -0.0672489000
H 3.3370100000 -1.3373300000 -1.2658500000
H 3.1195300000 -0.6371020000 1.8467500000
H 0.7704860000 -2.0877200000 -0.2371590000
H 1.4962400000 -0.8909720000 -1.4521200000
H -0.9795580000 -0.9376980000 -1.7876100000
H -0.4321210000 0.5902350000 -1.4294500000
H -1.2452100000 0.2651200000 0.8755970000
H -1.7589600000 -1.3009500000 0.4919130000
H 2.5230400000 -2.1336700000 1.2061300000
N -3.9325600000 0.2204100000 0.1091750000
N 1.4900500000 -0.3193020000 0.5933810000
N 3.7689100000 0.6536000000 -0.7093030000
O -4.9046500000 0.6061190000 -0.4393650000
O -3.9304800000 -0.3960700000 1.1949800000
O -2.7356200000 0.1902050000 -0.6269830000
