15
0 1
H 0.0335239000 -1.9312500000 -0.0626148000
H 1.1902300000 -2.6470600000 -0.7968640000
H -1.9275100000 -0.6679070000 -0.0600923000
H -2.1987700000 -1.9699000000 0.7370840000
H -2.5342900000 1.4882200000 0.7159060000
H -1.1923800000 1.5642700000 -0.0486691000
H 1.1420800000 1.6229400000 0.0132851000
H 0.5766590000 2.7840800000 -0.8613470000
H 1.9003400000 -0.5572180000 0.0277389000
H 2.9823300000 0.1996120000 0.8214290000
O 1.0119400000 -2.0611300000 -0.0560244000
O -1.6870100000 -1.6297900000 -0.0218191000
O -2.0708000000 1.1107900000 -0.0416411000
O 0.4065300000 2.2785700000 -0.0360734000
O 2.3428100000 0.3158320000 0.0948261000
