7
0 1
C 0.7980280000 0.0648560000 0.0587571000
C -1.3504700000 0.5550170000 -0.0206866000
H -2.1940000000 1.2023000000 0.1226400000
N -1.3924400000 -0.7610730000 -0.0649328000
O 1.9741400000 -0.0116259000 -0.0509912000
O -0.0561543000 1.1204800000 0.0051074100
O -0.0110196000 -1.0581100000 0.0588171000
