12
0 1
C -1.3122500000 0.3580540000 0.0278815000
C 1.3454500000 -0.3695780000 -0.0600725000
H -2.8924800000 -0.3714010000 -1.0663500000
H -2.4326000000 -1.3822700000 0.2472380000
H 2.6662700000 0.7960850000 -1.0883200000
H 2.5536100000 1.0905600000 0.6493850000
N -2.2017400000 -0.6207720000 -0.3735330000
N -0.5963560000 -0.0854829000 1.2057800000
N 0.6222680000 -0.3306370000 1.2046400000
N 2.2020700000 0.7108150000 -0.1938160000
O -1.1243400000 1.4340800000 -0.5057970000
O 1.0896400000 -1.1567400000 -0.9254950000
