17
0 1
C -3.2942600000 -0.4681830000 0.0760618000
C -0.9683230000 0.3907860000 -0.0132208000
C 1.9236700000 -1.5218300000 0.0699205000
C 1.5175400000 0.4984770000 0.0033995500
H 2.2871400000 2.3726400000 0.1324460000
H 0.4923610000 2.2557800000 0.1656740000
H -1.4763100000 -1.5268400000 0.1747320000
H 2.4153600000 -2.4749100000 0.1527220000
H -3.4949300000 0.6011290000 0.1333640000
H -3.6452500000 -0.9607740000 0.9921180000
H -3.8229700000 -0.8914640000 -0.7965320000
N 1.4534000000 1.8627700000 -0.0820502000
N -1.8612900000 -0.6355240000 -0.1304290000
N 0.3669520000 -0.1722930000 -0.1121740000
N 0.6370250000 -1.5216600000 -0.0753212000
N 2.5452700000 -0.3296380000 0.0814932000
O -1.2270800000 1.6004200000 0.0572347000
