15
0 1
H -0.0830226000 1.6181800000 0.3229620000
H 0.9053740000 2.0862000000 1.5040900000
H -1.5789700000 0.4850730000 -0.4033570000
H -1.1618500000 1.6725000000 -1.3968600000
H -2.7625900000 -1.2703600000 0.3049990000
H -1.1862200000 -1.3692600000 0.2837730000
H 0.9018270000 -1.2898800000 0.0804790000
H 0.3888410000 -0.4371020000 1.2350600000
H 2.9577400000 -0.8621640000 -0.6490270000
H 1.9699500000 0.3113830000 -0.4300540000
O 0.7973390000 1.4327300000 0.7631650000
O -1.3860300000 1.4543800000 -0.4577550000
O -1.9935800000 -1.1573100000 -0.2945950000
O 0.3964320000 -1.3810400000 0.9190130000
O 2.1419500000 -0.4668200000 -1.0363400000
