10
0 1
H -0.5198520000 1.0366900000 -0.8706790000
H -2.6674100000 -0.9741540000 -0.2236520000
H 1.8888200000 0.6836230000 1.1315600000
H 2.9285500000 0.5318150000 -0.8026490000
H 3.1951600000 -0.8101340000 0.1062330000
N 2.4821800000 -0.3117030000 -0.4438890000
O -1.2972600000 1.1684000000 -0.3152110000
O -1.2714000000 0.0368950000 0.5344290000
O -1.6965700000 -1.0752200000 -0.2236840000
O 1.4901800000 0.0841902000 0.4752680000
