9
0 1
C 0.0092206900 0.7743390000 -0.0669721000
H 2.1687400000 -0.7249210000 1.0100000000
H 2.2093100000 -0.3023800000 -0.6672390000
N 1.8117800000 -0.8787540000 -0.0000814943
N 0.4462370000 -0.5001450000 -0.0673557000
N -0.5579700000 -1.3144700000 -0.0482805000
N -1.6148200000 -0.6701080000 0.0824217000
O -1.2942900000 0.7057740000 -0.0030309300
O 0.6655370000 1.7849300000 0.0395492000
