18
0 1
H -1.1668800000 -1.8287800000 1.5870100000
H -2.1041800000 0.7965640000 -0.1824020000
H -3.3678700000 0.1225550000 -0.8151270000
H 1.8244200000 1.1991100000 0.3752210000
H 1.1934300000 2.1255500000 1.4474400000
H -0.1869930000 2.0385700000 -0.2273100000
H -1.9583900000 -1.3934700000 0.3487130000
H -1.3996600000 2.9407400000 -0.2643920000
H 1.3682400000 -2.9026800000 -0.7295400000
H 0.1097800000 -2.1236800000 -0.2929490000
H 2.2348300000 -0.8494210000 -0.0853423000
H 3.2247300000 0.0325589000 -0.7935790000
O 1.3227800000 2.0663900000 0.5032920000
O 1.0226600000 -1.9947500000 -0.7370870000
O -2.8058000000 0.1230260000 -0.0066102100
O -1.0899900000 2.0846200000 -0.6024430000
O -1.3680600000 -2.1027900000 0.6698390000
O 2.9469800000 -0.1961940000 0.1270400000
