13
0 1
C -1.4941700000 -0.4111880000 -0.0346576000
C 0.7358740000 0.6015230000 -0.0057832500
H -3.0341700000 0.9470510000 0.2014680000
H -1.4377600000 1.6200700000 -0.3082340000
H 0.2296700000 -1.3686000000 0.0673290000
H 2.7538300000 0.7778480000 -0.5292940000
H 2.7654700000 -1.3648700000 0.6199110000
N -2.0219600000 0.8820680000 0.0096359700
N -0.1394200000 -0.4708650000 -0.0513360000
N 2.0677800000 0.2253350000 0.1504660000
O -2.1249800000 -1.3964000000 0.0260018000
O 0.4165700000 1.7585100000 0.0229930000
O 2.1994000000 -1.1382700000 -0.1202310000
