31
0 1
C 2.1471400000 0.6386790000 -0.9543830000
C 0.7119550000 0.2298830000 -0.2560350000
C 3.2916200000 0.3838340000 0.0753001000
C 3.2519200000 -1.1951000000 0.3972190000
C -1.6820900000 0.4856600000 -0.2037250000
C -1.5511400000 1.6654100000 0.7085430000
C -2.1113600000 -0.7302800000 0.5536980000
C -3.0511800000 -1.5146500000 -0.2697510000
H -0.2218220000 2.4252500000 -0.4175300000
H -4.7367400000 -0.5327490000 0.3932280000
H -4.7210200000 -1.8849600000 -0.9378680000
H -1.3245100000 -1.5124700000 0.6548640000
H -2.4407300000 -0.3011650000 1.5141300000
H -2.5029500000 0.7703140000 -0.9472290000
H -0.3627670000 0.4923100000 -2.0381600000
H 2.6947500000 -1.0716500000 2.3084300000
H 4.1976100000 0.5191900000 -0.5508270000
H 3.3445100000 1.1072300000 0.8294880000
H 2.3219600000 -0.0590361000 -1.8116300000
H 2.4192900000 2.1679900000 -2.4723700000
H 2.4956600000 2.6453800000 -0.9042350000
H 3.3926700000 -2.5399500000 1.9762500000
N 1.9557300000 2.0142700000 -1.5615900000
N 3.2521700000 -1.6242400000 1.6825800000
N -0.4794170000 0.3865450000 -0.9673310000
N -4.3702200000 -1.2144000000 -0.2318000000
O -2.5940800000 -2.3167700000 -1.1546800000
O 0.7277150000 0.0127489000 0.9198830000
O 3.3635300000 -1.9677600000 -0.5514230000
O -2.2673800000 1.6732300000 1.7234900000
O -0.8679010000 2.7308600000 0.2683810000
