10
0 1
C -1.1439900000 -0.1792590000 0.0519844000
C 1.1529500000 -0.2111510000 -0.0318505000
H -1.2368300000 1.7438700000 -0.5359480000
H 1.1825600000 1.7111000000 0.5909020000
H 0.0102930000 -2.0052400000 0.0554065000
N -0.7069550000 1.1487000000 0.1336140000
N 0.7226010000 1.1517300000 -0.1288660000
N 0.0121035000 -0.9709600000 0.0403150000
O -2.3258500000 -0.5317380000 -0.0481483000
O 2.3003400000 -0.5199520000 -0.0201782000
