32
0 1
C 1.8942900000 1.0406500000 -0.8823220000
C -3.0561200000 1.7914400000 -0.4969150000
C -2.6415800000 0.8485880000 0.7614430000
C -1.8229600000 -1.0994100000 -0.5344470000
C -3.8573000000 0.0502960000 1.3131800000
C 3.1732000000 -0.4911640000 0.5527850000
C 3.2884700000 0.2686000000 -0.7642970000
C 0.7322680000 0.1443010000 -0.6101200000
C -1.4825100000 -0.1248750000 0.6269310000
H -3.7145800000 2.5702200000 -0.1810320000
H -1.9498200000 -2.9368200000 -0.9364900000
H -4.0199800000 -0.8494610000 0.8466070000
H -3.5156100000 -0.2012810000 2.4107500000
H -4.7019100000 0.7239530000 1.4387800000
H -3.5231800000 1.0270600000 -1.1820100000
H -2.2656900000 2.4102100000 -0.9538100000
H -2.1518200000 1.6364900000 1.5239300000
H -0.1297050000 1.5885200000 0.4120620000
H 2.0465100000 -0.9959640000 2.0153800000
H 4.1110300000 0.9176730000 -0.6633560000
H 3.2989900000 -0.5139860000 -1.4920500000
H 1.7908600000 1.3860400000 -1.9250900000
H 2.0144100000 2.1569400000 1.0531100000
H 2.2773600000 3.0555000000 -0.2714760000
H -1.2740400000 -0.8048540000 1.5129300000
N 1.8281800000 2.2577700000 0.0424893000
N -0.2313310000 0.6204160000 0.2666440000
O -1.8173000000 -0.7204260000 -1.7101600000
O 0.8585680000 -0.9800080000 -1.0419300000
O 3.9926500000 -1.2857300000 0.9524670000
O 2.0287000000 -0.3355820000 1.2447400000
O -2.1672900000 -2.4142700000 -0.1413260000
