10
0 1
C 0.0012157700 -0.6820600000 -0.0332447000
C 0.0009322530 0.6815410000 -0.0230251000
H -1.8062900000 -1.8763900000 0.0661352000
H 1.8285500000 1.8732000000 0.0198381000
N 2.0367900000 -0.1494340000 0.0112110000
N 1.2672800000 -1.1812700000 0.0035588200
N -1.3165800000 -0.9914800000 0.0006472740
N -2.0496900000 0.1459100000 0.0095994800
N -1.2629500000 1.1817000000 0.0036051700
N 1.3201300000 0.9954750000 0.0073276100
