18
0 1
C 0.6714080000 1.7303900000 -0.4530100000
C -0.4580260000 1.7526000000 0.5280560000
C -1.2638700000 -0.6254320000 1.0034900000
C 1.1018500000 -0.7166930000 -0.9044440000
H 0.2493910000 -0.8944500000 -1.5541000000
H -0.0349415000 1.7124100000 1.5787800000
H -0.5295830000 -0.8770720000 1.7403300000
H 1.3461600000 2.5291600000 -0.1983040000
H 0.3259150000 1.8883000000 -1.5222000000
H -1.0846500000 2.6619200000 0.4127660000
N 2.6926800000 -0.8844250000 0.4907910000
N -1.2889400000 0.5574660000 0.3686590000
N -2.2373100000 -1.4037200000 0.4836130000
N -2.7196400000 -0.7329630000 -0.5659930000
N -2.1425700000 0.4083020000 -0.7306100000
N 1.3588800000 0.4763020000 -0.3807090000
N 1.9347600000 -1.6049600000 -0.3845780000
N 2.3192200000 0.3460840000 0.5042820000
