38
0 1
C -0.9796290000 2.1395500000 0.1885550000
C 1.5394800000 -2.3370900000 -0.3152940000
C 1.0631300000 -1.4724400000 2.0900900000
C 2.0191700000 -1.4205200000 0.8554490000
C 3.1876700000 0.1783660000 -0.6956300000
C 0.0180910000 -2.1912300000 -0.6351190000
C -3.6344700000 -0.7176040000 -0.3411210000
C -2.7185200000 0.2983400000 0.4299870000
C -1.9528800000 1.1656700000 -0.5798730000
C 0.0901572000 1.3924500000 0.9651950000
C 2.1689200000 0.1200080000 0.3999280000
H 1.0859000000 -2.5334000000 2.4273100000
H 3.5332300000 -0.2151300000 -2.4830800000
H -0.5779330000 -2.6539000000 0.1720280000
H -0.3184100000 -1.1268600000 -0.8081800000
H -0.2175400000 -2.7619600000 -1.5729500000
H 2.1249200000 -2.0645500000 -1.1042200000
H 1.8146700000 -3.4080300000 -0.0613699000
H 1.4059400000 -0.8134190000 2.8962800000
H 0.0471085000 -1.1436500000 1.8622500000
H 3.0021700000 -1.8575100000 1.2054800000
H -5.0260800000 -1.8149100000 -0.3811650000
H 0.8299010000 0.8500490000 -0.9355950000
H -3.3685900000 0.9051170000 1.0533600000
H -1.8316100000 -0.1357840000 1.0452700000
H -2.5810500000 1.8523300000 -1.1574500000
H -1.3955800000 0.5070170000 -1.3716300000
H -1.5774600000 2.6399000000 0.9340300000
H 0.0132320000 2.8171600000 -1.4295900000
H 0.3181610000 3.6204000000 -0.2331420000
H 2.6074600000 0.6771340000 1.2502800000
N -0.4652850000 3.1590400000 -0.6476060000
N 0.9681770000 0.8201330000 0.0817834000
O 4.3624500000 0.2438920000 -0.4716680000
O 0.1657260000 1.3228400000 2.2056500000
O -3.6888700000 -0.7020760000 -1.5647900000
O -4.5846000000 -1.3685600000 0.3682270000
O 2.7183600000 -0.0119977000 -1.9774400000
