25
0 1
C 1.4764900000 -0.5975760000 2.0477900000
C 2.0300100000 0.1726240000 0.8270360000
C 1.3226800000 -0.2310640000 -0.4679120000
C 1.7938100000 0.6765990000 -1.6262000000
C 1.5830800000 -1.6945700000 -0.7590090000
C -0.8543850000 0.8176740000 -0.0549937000
C -2.7837800000 -0.5810020000 -0.0170705000
H -2.8393000000 1.3574900000 -0.4314090000
H 0.4800310000 2.2766300000 0.3776600000
H -1.0488600000 2.4675100000 1.0564500000
H 1.1062000000 -2.2765800000 0.0554665000
H 1.0056300000 -1.9722100000 -1.6328700000
H 2.6831100000 -1.8473900000 -0.8409130000
H 1.3589200000 1.7348200000 -1.4726300000
H 2.9346200000 0.7664370000 -1.6880400000
H 3.0782900000 0.0264014000 0.5797940000
H 1.8852400000 1.2421300000 1.0510000000
H 1.8929600000 -1.6397800000 2.0997800000
H 0.3122850000 -0.7715090000 1.9066700000
H 1.6840000000 -0.0668855000 3.0825000000
H 1.3880500000 0.2307710000 -2.5703000000
N -2.2739900000 0.6510770000 0.0905085000
N -0.1553070000 -0.1476980000 -0.4237990000
N -0.5379970000 2.1795400000 0.2437380000
N -3.2225200000 -1.6691900000 -0.0920183000
