23
0 1
C -1.7013900000 -0.8202590000 -0.0990319000
C -0.7611580000 1.2926100000 -0.0302478000
C 1.6748200000 1.5893400000 -0.4915940000
C 2.3932000000 0.5157440000 0.3677190000
C 1.7356600000 -0.9136030000 0.2749750000
H 1.0424000000 -2.0633800000 -1.0847800000
H 2.4480100000 0.7897980000 1.3995500000
H 3.4528500000 0.5934130000 -0.0077869200
H 1.6293100000 1.1650900000 -1.4797100000
H 0.3460280000 2.8983100000 0.5129320000
H 2.3284400000 2.4779700000 -0.5708300000
H -2.7522400000 1.3976700000 0.2737190000
H -3.6027800000 -1.3076500000 0.0007058530
H -1.9116800000 -2.8500600000 -0.0859020000
H -0.5241700000 -2.2762100000 0.5336280000
H -2.0711100000 2.9556500000 0.0320696000
N -1.2521500000 -2.1273800000 -0.1324970000
N -2.9452600000 -0.4955650000 -0.1213200000
N -0.6739150000 -0.0115753000 -0.2678350000
N -1.8957700000 1.9900000000 0.3847190000
N 0.3514450000 2.0418000000 -0.0438667000
O 1.7777500000 -1.4042600000 -0.9830430000
O 1.2819600000 -1.5388000000 1.1844300000
