30
0 1
C -2.6766300000 -1.3209400000 0.0593312000
C -1.3890300000 -0.7836940000 0.6985930000
C -2.2950100000 -2.0845000000 -1.2028100000
C 0.0978063000 1.2736200000 0.7689420000
C 0.2170830000 2.6088800000 -0.0129368000
C 1.4355200000 0.5300480000 0.8011570000
C 1.7719400000 -0.0639707000 -0.5696430000
C 2.7247600000 -1.2648600000 -0.4107170000
H -0.6614180000 3.7084100000 -1.2031900000
H 1.3040100000 -2.3808700000 0.6988570000
H 2.7531500000 -3.1483200000 0.3431680000
H 2.3016500000 0.6788660000 -1.1662300000
H 0.8972250000 -0.4500170000 -1.0915000000
H 1.3876900000 -0.2094780000 1.6139500000
H 2.1753900000 1.3103300000 1.0785900000
H -1.6567100000 0.8658580000 -0.3540520000
H -1.6122100000 -2.9076800000 -0.9462320000
H -1.7218100000 -1.4598200000 -1.9145400000
H -3.1929700000 -2.4395500000 -1.7167500000
H -3.0364900000 -2.0246900000 0.8278050000
H -3.8858400000 0.2540320000 0.5983720000
H -4.4225800000 -0.5891320000 -0.6821300000
H -0.1536310000 1.5858000000 1.8060700000
N -3.5832300000 -0.2047920000 -0.2628290000
N -1.0070600000 0.4387010000 0.2735240000
N 2.1608300000 -2.3630100000 0.1938950000
O 3.9051200000 -1.2330400000 -0.7390530000
O -0.6973090000 -1.4684700000 1.4537800000
O 1.0299800000 3.4671300000 0.1343840000
O -0.8362710000 2.8271700000 -0.8635900000
