15
0 1
C 1.2790700000 0.7033870000 0.0001083400
C -0.9264780000 0.7273770000 0.0676020000
C -0.9393210000 -0.7170090000 -0.0220496000
C 1.2815700000 -0.6745720000 0.0420170000
H 2.4212200000 2.3179000000 -0.2134580000
H 3.2900000000 0.8583220000 -0.4764740000
H 2.3032800000 -2.2948100000 0.2060170000
H 3.2753500000 -0.9803480000 0.5326290000
N 2.5240500000 1.3241600000 -0.0102507000
N 0.1998360000 1.4575100000 0.0234351000
N -2.1679300000 1.1191600000 0.0515565000
N -2.1538100000 -1.1333600000 -0.0860483000
N 0.1944940000 -1.4164700000 0.0012421400
N 2.5304600000 -1.3568800000 -0.0483158000
O -2.9185800000 -0.0118703000 -0.0120141000
