23
0 1
C 2.5674100000 0.9466950000 1.0652600000
C 2.3530300000 -0.4223160000 0.4480670000
C 1.1356300000 -0.3013310000 -0.5128780000
C -1.1222400000 0.3843910000 -0.5031540000
C -2.3126100000 0.3072200000 0.4184990000
C -2.5985300000 -1.0945900000 0.9434220000
H -2.7904500000 -1.7927000000 0.1291770000
H -3.4716500000 -1.1412600000 1.6229000000
H -1.7639700000 -1.5777400000 1.5262400000
H -2.2673200000 1.0693400000 1.2309900000
H -3.1811500000 0.7706470000 -0.0652043000
H -1.0330800000 2.3215000000 -0.2471730000
H -1.2904000000 -0.2768950000 -1.3517200000
H 1.3303900000 0.5690260000 -1.1554500000
H 2.1730300000 -1.2788000000 1.1330600000
H 3.2355000000 -0.6944040000 -0.1277040000
H 1.7369700000 1.1830400000 1.7426100000
H 3.5677000000 1.0198700000 1.5594300000
H 2.6376800000 1.6295900000 0.2614190000
H 1.0688500000 -2.2342700000 -0.7013110000
O -0.0149440000 -0.0625738000 0.2230500000
O 0.9785560000 -1.4715200000 -1.2726300000
O -0.9746520000 1.7231800000 -1.0394900000
