18
0 1
C 2.4557300000 -1.3962600000 -0.7208390000
C 0.4241590000 -0.2759710000 -0.2868320000
C -2.0602100000 -0.2761830000 0.0718803000
C 0.9272050000 1.0405300000 0.1565130000
H 1.8504900000 0.3127600000 1.6700400000
H -1.4177000000 1.0048300000 -1.2612600000
H -3.0763400000 1.0654200000 -1.1055300000
H -0.6800490000 -1.2060000000 1.2444900000
H 2.9509800000 -2.2569600000 -0.2613830000
H 3.1006400000 -0.5255440000 -0.8983780000
H 2.1042800000 -1.7672400000 -1.6967700000
H 0.2209510000 -0.3499170000 -1.3782500000
N -0.7945990000 -0.6578240000 0.3794370000
N -2.2397400000 0.5121580000 -1.0194400000
O 1.5713300000 1.1513100000 1.3092800000
O 1.3646700000 -1.1363500000 0.1595540000
O -2.9738000000 -0.7450960000 0.7223650000
O 0.7510290000 2.0038400000 -0.5858630000
