20
0 1
C 2.1407400000 -0.4219530000 -0.0175442000
C 0.7892590000 1.5148700000 0.6344910000
C -0.5562210000 1.7420600000 0.0523164000
C -1.4324800000 0.5609710000 -0.0243919000
H -0.2183660000 -1.0998800000 0.7701770000
H -0.4638450000 2.1647900000 -0.9590180000
H -1.1157100000 2.4772100000 0.6349150000
H 1.2246500000 2.5018200000 0.8518710000
H 0.7470450000 0.9996790000 1.5909300000
H 1.8985300000 -2.0938200000 0.9795870000
H 3.4274900000 -1.7446500000 -0.8465330000
H 3.9498800000 -0.1206950000 -0.9646410000
H 2.0708300000 1.2670500000 -1.0904300000
N -2.1359000000 -1.4715900000 0.1128660000
N 3.1718600000 -0.7609720000 -0.8734650000
N 1.5374000000 -1.1543000000 0.9085520000
N 1.7537000000 0.8571930000 -0.2315660000
N -2.6034000000 0.4997030000 -0.5614490000
N -3.0408100000 -0.7770480000 -0.4532970000
N -1.1354500000 -0.7254400000 0.4074900000
