7
0 1
C -0.7805070000 0.0081267100 0.0046570100
C 1.3214200000 0.5559990000 -0.0046075900
H 2.1755800000 1.2127600000 0.0035053100
N 1.3610800000 -0.7211680000 -0.0012312900
O -1.9619300000 0.0555403000 -0.0041054900
O 0.0885722000 1.0950000000 0.0028647100
O 0.0047762000 -1.0942000000 0.0018429100
