18
0 1
C 1.9053400000 -0.5910470000 0.0145311000
C 0.6577710000 1.3147300000 -0.0280771000
C -0.4934970000 0.3997210000 0.0610083000
C -2.7821600000 0.3180480000 0.1075630000
C -2.6781500000 -1.1441100000 -0.0435753000
C -0.3491490000 -0.9840980000 -0.0129048000
H -3.6579400000 -1.6444800000 -0.1203990000
H -3.7776200000 0.7773030000 0.1670570000
H -0.5153380000 2.9771100000 -0.0251614000
H 1.2737500000 3.1562500000 -0.2442320000
H 3.3638300000 -2.0346500000 0.2395370000
H 3.8376600000 -0.4916010000 0.5312980000
N 3.1960100000 -1.0789000000 -0.0528463000
N 1.8660800000 0.7948210000 0.0311533000
N 0.4240960000 2.6123400000 -0.1532640000
N -1.7006400000 1.0742500000 0.1600870000
N -1.5287500000 -1.7347400000 -0.1711540000
N 0.8738670000 -1.4705400000 0.0232559000
