17
0 1
C -1.7032300000 -1.5801900000 0.6220430000
C -1.8857600000 -0.6327580000 -0.5153580000
C -1.5300300000 0.8374030000 -0.2677130000
C -0.0483129000 0.8537760000 -0.0466513000
H 1.3173200000 1.8779200000 0.6879560000
H -2.0995900000 1.2435200000 0.6186830000
H -1.7464500000 1.4701700000 -1.1269600000
H -2.9486700000 -0.7994300000 -0.7850580000
H -1.3488200000 -1.0199300000 -1.3646700000
H -2.3918500000 -1.4480600000 1.4489300000
H -0.7334790000 -1.5255900000 1.1320300000
H -1.8042700000 -2.6185800000 0.3415400000
H 2.5138000000 -1.1772100000 0.1811840000
H 3.4997200000 -0.3497380000 -0.7653990000
O 3.4400500000 -1.0036600000 0.0097081500
O 0.3978990000 1.9643000000 0.4939770000
O 0.7553330000 -0.0259485000 -0.3939560000
