15
0 1
C 1.3114400000 0.6878600000 0.0785838000
C -0.9382650000 0.6700550000 -0.0431807000
C -0.9807770000 -0.7306020000 -0.0518898000
C 1.3381500000 -0.7217080000 -0.0349462000
H 2.4921100000 2.2814000000 -0.1697630000
H 3.2214400000 0.9860860000 -0.7251990000
H 2.4895500000 -2.2800900000 0.1225510000
H 3.0469300000 -0.9430370000 0.8585430000
N 2.5511800000 1.3164100000 -0.0202758000
N 0.2118210000 1.4462100000 0.0775324000
N -2.1968100000 1.1273500000 0.0228076000
N -2.2111100000 -1.1373000000 -0.0112025000
N 0.2332560000 -1.4376300000 -0.0948379000
N 2.5812900000 -1.2820100000 0.0188933000
O -2.9775800000 0.0363374000 0.0340058000
