11
0 1
C -1.2283000000 -0.4673690000 -0.0866802000
C -0.2784190000 1.5431200000 -0.0113727000
H -2.2617900000 -2.0173100000 0.5925220000
H -3.1366900000 -0.6538540000 0.7286860000
H 1.4321000000 2.2075700000 0.4681650000
N -2.4418600000 -1.1553200000 0.1885630000
N -1.3357600000 0.9094770000 0.0191332000
N 0.5664720000 2.4021600000 0.0068855600
N 2.4412200000 -0.4675450000 -0.1951490000
N 2.9337900000 -1.2578300000 0.3859680000
O -0.2675580000 -1.1259400000 -0.5048580000
