17
0 1
C 0.0471404000 -0.6815540000 -0.1679650000
C 1.4101400000 0.0542885000 -0.2455660000
C -1.1073100000 0.2910220000 -0.4719480000
C -2.3953900000 -0.3675080000 -0.6187900000
H 0.5549700000 1.5850900000 0.5059850000
H -3.1225100000 0.4547560000 -0.6616250000
H -2.5262900000 -1.0492400000 0.2354240000
H -2.3667500000 -0.9198790000 -1.5377000000
H -1.7127300000 0.8393520000 1.2665100000
H -1.0058700000 0.8670600000 -1.3402100000
H 0.0670525000 -1.4441200000 -1.0048700000
H 0.5570160000 -2.1869200000 1.0252100000
H 0.3053580000 -0.8473540000 1.8298800000
N -0.0754672000 -1.4347000000 1.0681200000
O 2.4345900000 -0.4536170000 -0.6365640000
O -1.1512900000 1.2517400000 0.5662170000
O 1.4730100000 1.3227100000 0.2241160000
