33
0 1
C -1.1208100000 -0.9032710000 -0.3452800000
C 1.8997200000 0.5968710000 -0.9108930000
C 0.1711980000 2.2565900000 -0.0323286000
C 1.1611100000 1.0665200000 0.3410470000
C 2.8672800000 -0.5889510000 -0.4153680000
C -3.0850700000 -0.2212460000 1.1337200000
C -2.3492000000 0.0108718000 -0.1924270000
C -0.1889340000 -1.0288000000 0.7506160000
C -3.0697300000 -0.1001630000 -1.5462600000
H 1.1373800000 -0.2290470000 1.8951800000
H -0.6345020000 3.9806500000 0.6007180000
H 1.8289100000 -2.1711500000 -1.3512100000
H 3.0344500000 -2.6959000000 -0.3361670000
H 1.2635200000 0.2202990000 -1.6295600000
H 2.5415700000 1.3910000000 -1.2989100000
H 1.9054100000 1.5937900000 0.9856850000
H -2.2161500000 0.1215450000 -2.2363300000
H -3.8186300000 0.6134200000 -1.7139500000
H -4.0654000000 0.2393770000 1.2327800000
H -3.0133200000 -1.3110000000 1.3650000000
H -2.5720400000 0.2077030000 1.9575100000
H -2.0284900000 1.0740400000 -0.1036640000
H -0.5386150000 -0.4820100000 -1.1711400000
H -0.9173990000 -2.8387500000 -0.3073990000
H -2.4567100000 -2.4950200000 -0.1538230000
H -3.3652300000 -1.0979100000 -1.7892300000
N -1.6499500000 -2.3072100000 -0.6878160000
N 0.5508660000 0.0619070000 1.1022600000
N 2.5007600000 -1.9165000000 -0.6353060000
O 3.8348500000 -0.2916440000 0.1869220000
O -0.1622980000 -1.9946100000 1.5627600000
O -0.1217990000 2.4976200000 -1.1619500000
O -0.2519790000 3.0987700000 1.0252100000
