18
0 1
H 2.5517700000 0.4581990000 -0.5497260000
H -2.4942900000 -1.5650900000 -1.2895400000
H -2.5933900000 -0.4675600000 -0.2231390000
H 2.6752300000 -2.0186600000 -1.0966700000
H 1.6867300000 -1.5901600000 0.0262889000
H 0.1108040000 -2.0132500000 1.4818800000
H 2.9731600000 1.7139600000 0.3256910000
H -0.8114760000 -1.5019000000 0.3177230000
H 0.0518118000 0.6323000000 1.0293600000
H 0.7129610000 1.7044400000 0.1347530000
H -1.4199800000 1.5843000000 -0.1634400000
H -2.9107100000 1.9058800000 0.0997435000
O 2.5852900000 -1.3928300000 -0.3409100000
O -0.1251760000 1.5621200000 0.7015350000
O -2.5609700000 -1.4576000000 -0.2821990000
O 0.0329782000 -1.2824400000 0.7989200000
O 2.3911800000 1.4384300000 -0.4105750000
O -2.3898900000 1.2770000000 -0.4783850000
