17
0 1
C -1.9063200000 0.0578546000 0.0144051000
C 1.4314500000 -0.8561810000 0.6812430000
C 2.1520100000 0.2277400000 -0.0962672000
H 0.5561920000 1.2360000000 0.0987895000
H 1.9785300000 -1.7840300000 0.5521870000
H -0.3271810000 -1.8549100000 0.7028470000
H 1.4605100000 -0.6125010000 1.7527700000
H -2.3827400000 1.7770900000 0.8797310000
H -1.5884100000 -1.4048300000 -1.3178400000
H -3.2056400000 -0.8103820000 -1.3279700000
H -3.3604700000 1.4023400000 -0.4278560000
N -2.3339200000 -0.9271690000 -0.8191370000
N -2.8292900000 1.0224700000 0.3496600000
N -0.7428380000 0.0750491000 0.5725000000
N 0.0504803000 -1.0447600000 0.1968830000
O 1.4547400000 1.3588600000 -0.3060850000
O 3.2696800000 0.0905991000 -0.5199500000
