33
0 1
C -2.2457300000 -0.1474830000 0.6744200000
C 2.8958600000 0.8990690000 -0.8469580000
C 2.0126400000 -0.1420160000 -1.5534500000
C 1.9564700000 -1.5679400000 0.5364010000
C 2.1817500000 1.9986600000 -0.0908264000
C -3.8331100000 -0.7039100000 -1.1738400000
C -3.2058100000 0.4149100000 -0.4036060000
C -1.1405200000 -1.0127000000 0.0910973000
C 1.1509600000 -1.0563200000 -0.6480710000
H 0.8524450000 -1.8856300000 -1.2375200000
H 3.3997900000 -2.5692500000 1.0061500000
H 0.7462300000 3.2650700000 -0.3722030000
H 3.5084800000 0.5041040000 -0.0426288000
H 3.6221900000 1.4084200000 -1.5697100000
H 2.6768800000 -0.8089950000 -2.0855800000
H 1.4087800000 0.3899330000 -2.2784600000
H -0.0223756000 0.5220620000 0.3877820000
H -4.4947100000 -0.2693440000 -1.8739100000
H -4.3696800000 -1.4044900000 -0.4661620000
H -3.0643000000 -1.2376800000 -1.7399700000
H -4.7596700000 0.6297280000 0.7123620000
H -2.5973700000 1.0932500000 -1.0204000000
H -2.8356200000 -0.7635740000 1.3299100000
H -2.4500200000 1.6652000000 1.4725300000
H -1.4254000000 0.6720960000 2.3718600000
N -1.6951200000 0.9874410000 1.4422000000
N -0.0039547700 -0.3171840000 -0.1711030000
O -1.2768000000 -2.2448900000 -0.0639566000
O -4.2059000000 1.2463500000 0.2169170000
O 1.7860400000 -1.2011100000 1.6455000000
O 2.7024000000 2.5883900000 0.8070980000
O 0.9610400000 2.3094100000 -0.6434140000
O 2.9160700000 -2.4476800000 0.1625060000
