9
0 1
C 1.9138800000 -0.0207622000 0.0457910000
C 0.5097380000 -0.0164957000 0.0987878000
C -1.3898900000 1.0990900000 -0.0820237000
H -1.7858200000 2.0468000000 -0.1466670000
N 3.0365800000 0.0588361000 -0.1089990000
N -0.0677916000 1.1024300000 0.1129090000
N -2.0630500000 0.0108428000 -0.0321507000
N -1.4257300000 -1.1620200000 -0.0139971000
N -0.1109540000 -1.2126400000 0.0095718000
