8
0 1
C -0.0022646100 -0.6794230000 -0.0251008000
C 0.0051110800 0.7591990000 -0.0031813000
N 2.1497600000 -0.3492170000 0.0272466000
N 1.2655600000 -1.1262400000 0.0017585500
N -1.2586500000 -1.1468000000 -0.0096265100
N -2.1384300000 -0.3360630000 0.0110417000
O -1.1697100000 1.2509800000 0.0159155000
O 1.1516200000 1.2777300000 -0.0213217000
