10
0 1
C -0.3479500000 -1.8402500000 0.0028871500
C -0.5376310000 -0.4246890000 -0.0064128300
C -1.9025100000 0.0374220000 -0.0141909000
C 0.5261680000 0.4370470000 -0.0361978000
C 0.3472040000 1.8404300000 -0.0343545000
C 1.8666300000 -0.0429385000 -0.0160176000
N -0.1460040000 -2.9749200000 0.0284243000
N -3.0009800000 0.3999960000 0.0002751600
N 0.2274630000 2.9998900000 0.0528359000
N 2.9607400000 -0.4309690000 0.0078530500
