30
0 1
C -2.3297500000 -0.6764680000 -0.1726970000
C -0.8335750000 -0.7098420000 0.1647600000
C -2.7279400000 0.8126920000 -0.0066477100
C 1.2848800000 0.3104860000 -0.6735050000
C 2.3224000000 -0.8440550000 -0.6478630000
C 1.6231800000 1.3439000000 0.4975300000
C 0.7405980000 2.5681100000 0.3898260000
C 1.5461700000 0.7025520000 1.8869800000
H 1.1691800000 -2.0188200000 0.2091620000
H 1.9653700000 -0.3399080000 1.9220300000
H 0.5129140000 0.6151700000 2.3039300000
H 2.0958100000 1.3554600000 2.5829600000
H 1.0303300000 3.3498200000 1.0661900000
H -0.3493110000 2.4278500000 0.5648090000
H 0.7934860000 3.0427000000 -0.6502570000
H 2.7098300000 1.6353100000 0.2593910000
H -0.6685270000 0.5299570000 -1.4149400000
H -2.9632100000 2.3868400000 -1.1293300000
H -2.1760700000 1.3582500000 0.7603320000
H -3.7415500000 0.6846730000 0.4222310000
H -2.4165700000 -0.8360300000 -1.2492500000
H -3.0900500000 -2.5629900000 -0.0263539000
H -2.8312900000 -1.7237300000 1.4073300000
H 1.4887000000 0.8614480000 -1.6130300000
N -3.2006900000 -1.6572800000 0.4599310000
N -0.1302260000 -0.0567611000 -0.7845160000
O 3.4584800000 -0.4912180000 -0.9702660000
O -0.4051880000 -1.4909000000 0.9937010000
O -2.5038200000 1.5360200000 -1.1773900000
O 1.9544800000 -2.0304000000 -0.3177290000
