20
0 1
C 2.1094300000 -0.4490000000 0.0064870000
C 0.4327890000 1.1626500000 0.0726917000
C -1.7833300000 0.4329240000 0.8807740000
C -2.2114600000 -0.6201460000 -0.2003920000
H -0.3642800000 -1.2799700000 -0.1947550000
H -2.2991700000 0.1611280000 1.8220500000
H -2.3173600000 1.3052700000 0.5657810000
H 0.4170100000 2.6939100000 -1.2402000000
H 0.0796204000 -0.1660750000 1.4988300000
H 1.8740700000 -2.2775000000 0.5682870000
H 3.8705600000 0.2493700000 -0.6718470000
H 3.8829200000 -1.4046100000 -0.1966620000
H -0.8156660000 2.7648800000 -0.0865245000
N 3.4259600000 -0.5323410000 -0.1848500000
N 1.3503300000 -1.4031900000 0.4383990000
N 1.6306600000 0.8236180000 -0.2996770000
N -0.1656310000 2.1698700000 -0.5790470000
N -0.3582570000 0.5829840000 1.0157200000
O -1.2320800000 -1.3874300000 -0.6655370000
O -3.3671300000 -0.6990160000 -0.5039840000
