12
0 1
C 1.2170900000 -0.2891860000 -0.0978221000
C -1.1313600000 -0.3731950000 0.0611739000
H 2.6553800000 -1.6398200000 0.4874070000
H 3.0956800000 -0.0154356000 0.4263590000
H -2.3878900000 -1.9157500000 -0.0725223000
H -3.0253000000 -0.2457400000 -0.1509470000
N 2.4904200000 -0.7262550000 0.0147986000
N 1.0283800000 1.0669700000 -0.0547797000
N -0.1695550000 1.6955600000 0.0129100000
N -1.2021800000 1.0280000000 0.0373193000
N -2.3471500000 -0.9056120000 0.0946001000
N 0.0783257000 -1.0456700000 -0.1720500000
