16
0 1
C 1.9696300000 -0.0106641000 -0.2323930000
C 0.0121435000 -0.7356250000 0.7934080000
C -1.9415000000 -0.0297946000 -0.3014200000
C -0.0034992400 0.7915000000 0.7711580000
H 1.5942700000 -2.0146500000 -0.1167810000
H -0.0746010000 -1.0435100000 1.8421000000
H -1.6338200000 -1.9884300000 0.2270680000
H -1.6709100000 2.0349500000 0.0871640000
H -0.0626647000 1.1385400000 1.8280700000
H 1.3470300000 2.0328000000 -0.3522320000
N 1.2996400000 -1.0904300000 0.2817690000
N -1.1191100000 -1.1443800000 -0.0189046000
N -1.2536900000 1.1312100000 0.0916152000
N 1.2423200000 1.1530900000 0.1456490000
O 2.9710500000 -0.0108063000 -0.8931180000
O -3.0840700000 -0.0640269000 -0.7569810000
