27
0 1
C 2.7324600000 -0.3473810000 0.2141410000
C 1.4268400000 -0.7133150000 -0.4541950000
C 2.8137700000 1.1292700000 0.5310830000
C -0.7735150000 0.1695450000 -1.0633800000
C -1.6424600000 1.3533900000 -0.7381960000
C -1.5911500000 -1.1210000000 -0.6627130000
C -2.0802000000 -1.0000000000 0.8002000000
H -3.2438900000 2.1529500000 -1.1818400000
H -3.1956000000 -1.9044300000 2.0625800000
H -0.9670660000 -2.0184100000 -0.7038850000
H -2.4984400000 -1.2198600000 -1.2644900000
H -0.6077170000 0.0972986000 -2.1349500000
H 0.5244550000 0.8271700000 0.5162590000
H 3.8525800000 1.3868800000 0.7656630000
H 2.6747200000 1.6985800000 -0.4790200000
H 2.7351400000 -0.8495220000 1.1784800000
H 3.9641500000 -0.3391780000 -1.3920500000
H 3.6256900000 -1.8764600000 -0.8568110000
H 2.2321500000 1.9930100000 2.2308100000
N 3.8889500000 -0.8993640000 -0.5586660000
N 0.4505250000 0.2599710000 -0.3567280000
O -2.9103100000 -2.0176700000 1.1542000000
O 1.2786500000 -1.7819200000 -1.0255000000
O 1.9202700000 1.3905900000 1.5722900000
O -1.3397900000 2.3295100000 -0.0737797000
O -1.6530300000 -0.2016120000 1.6188900000
O -2.8941600000 1.2442100000 -1.2579200000
