31
0 1
C -2.0977500000 -0.3003310000 0.7395690000
C -0.7407160000 -0.6930200000 0.0698328000
C -3.1004900000 0.4666820000 -0.2597600000
C -3.2349800000 -0.1447070000 -1.6625700000
C 1.5278600000 -0.0428467000 -0.4674330000
C 2.5122600000 -1.1460800000 -0.0477983000
C 2.4056700000 1.3073500000 -0.5000860000
C 1.6451000000 2.5103300000 -0.7847380000
H 1.0548000000 -2.3597600000 -0.3648170000
H 0.8154660000 2.7791100000 -0.1449260000
H 2.3744100000 3.4209800000 -0.8274860000
H 1.3604100000 2.3409900000 -1.8500300000
H 3.8586300000 0.5746980000 0.7125790000
H 3.0481100000 1.0718400000 -1.3598200000
H 1.1157100000 -0.2280880000 -1.4938900000
H 0.1328440000 0.5913480000 1.0727200000
H -3.0961000000 -1.2045900000 -1.5564900000
H -4.1897200000 0.2241170000 -2.1181700000
H -2.3874600000 0.2054880000 -2.2673600000
H -4.9016100000 1.2145900000 0.7013320000
H -2.7464900000 1.5237800000 -0.3758510000
H -2.3029000000 -1.3409300000 0.9796230000
H -2.6910300000 0.0488705000 2.5852900000
H -2.0762100000 1.4926000000 1.6941600000
N -1.9361500000 0.4580430000 1.9230800000
N 0.2864030000 0.0322832000 0.3375900000
O -0.7254320000 -1.7191900000 -0.5920050000
O -4.4789000000 0.3669880000 0.3113310000
O 3.6073200000 -0.9336580000 0.4721780000
O 3.2338300000 1.4572500000 0.6490940000
O 1.9478900000 -2.3628300000 -0.0573122000
