18
0 1
C -0.4718880000 1.7997400000 1.0528400000
C -0.3820170000 -0.0190225000 -0.4625750000
C 2.0559100000 -0.3692650000 -0.0291945000
C -1.7199200000 -0.7054800000 -0.0934261000
H -2.5809300000 0.9119150000 -0.5763990000
H 1.4723100000 1.4263800000 -0.7642020000
H 3.1176300000 1.0892000000 -0.8727880000
H 0.5625180000 -1.5997700000 0.5445210000
H -1.3499500000 1.4658900000 1.6182000000
H 0.4134290000 1.4173900000 1.5913300000
H -0.4232030000 2.8821000000 1.0142300000
H -0.2889610000 -0.1746430000 -1.5295200000
N 0.6796720000 -0.6327610000 0.2251150000
N 2.1710000000 0.7481510000 -0.8006560000
O -2.8313700000 0.0229606000 -0.3863740000
O -0.4972410000 1.3877900000 -0.2865720000
O 2.8861700000 -1.1231300000 0.4291370000
O -1.7788100000 -1.8453700000 0.2685010000
