15
0 1
H 0.5855690000 -1.3316800000 0.9254490000
H -0.6674350000 -1.8435200000 1.8002300000
H 1.7185100000 -0.5101090000 -0.2258230000
H 1.4165600000 -1.5921800000 -1.4548800000
H 2.3520200000 1.6893000000 0.3902610000
H 0.9447600000 1.6061000000 -0.2430560000
H -1.4623200000 0.9356980000 0.0000733131
H -0.5548030000 1.0306200000 1.2824500000
H -3.4005100000 -0.2705760000 -0.5558430000
H -1.7045300000 -0.6136510000 -0.4057450000
O -0.2508220000 -0.9850040000 1.2342900000
O 1.7542500000 -1.5674600000 -0.4702080000
O 1.8885100000 1.3869000000 -0.4629540000
O -0.8017310000 1.6053400000 0.5053010000
O -2.4936900000 -0.3272740000 -0.9955670000
