8
0 1
C 1.0406600000 -0.1772710000 0.2198080000
H 1.1082800000 1.7194200000 -0.5296010000
H -0.3992130000 1.2665300000 0.2100650000
H 0.3280920000 -0.7353130000 0.8544460000
N 0.5190620000 1.0145300000 -0.1226000000
N -1.9460900000 0.2351440000 0.2626130000
N -2.0556600000 -0.7052020000 -0.3099640000
O 2.1372200000 -0.6247850000 -0.0830129000
