31
0 1
C 2.0213600000 0.2521050000 -0.6754010000
C 1.2142800000 -0.7137570000 0.1208290000
C 3.4895500000 -0.0993627000 -0.5525000000
C 4.0076400000 0.4131570000 0.7830010000
C -1.0685500000 0.3047080000 -0.7293510000
C -1.4751700000 1.4580000000 0.1417490000
C -2.3756800000 -0.4102350000 -1.1650500000
C -3.3444400000 -0.8834130000 -0.1362850000
H -1.2564400000 2.1804200000 1.8971000000
H -3.6771200000 -1.7241700000 1.5828200000
H -2.2839100000 -0.8440520000 1.7084700000
H -2.9339000000 0.2699510000 -1.8263600000
H -2.0508600000 -1.2298200000 -1.8076400000
H -0.5518050000 0.7117710000 -1.6335100000
H -0.6217400000 -1.3992500000 0.4581930000
H 5.0169700000 0.0371376000 0.9074510000
H 3.3752800000 -0.0001464230 1.5845600000
H 4.0040300000 1.5637700000 0.8783770000
H 3.2328300000 -1.8846500000 0.0656933000
H 4.1261900000 0.3334500000 -1.3318400000
H 1.7258200000 0.2036000000 -1.7207000000
H 1.5986400000 1.8881200000 0.6631120000
H 2.3778600000 2.2724900000 -0.7935220000
N 1.7129400000 1.6641700000 -0.3350810000
N -0.1530460000 -0.6625370000 -0.0781713000
N -2.8652300000 -1.4153000000 1.0912000000
O 1.7013500000 -1.4788200000 0.9177330000
O 3.7848500000 -1.4854200000 -0.6473680000
O -2.1251800000 2.4083000000 -0.2811790000
O -4.5363900000 -0.9845560000 -0.4247170000
O -1.0444400000 1.3642200000 1.4230500000
