16
0 1
C 1.1329700000 -0.1265030000 -0.0096033400
C -1.0145600000 -1.1864200000 -0.0787225000
C -1.5297400000 0.0870429000 0.4416970000
C -0.8116470000 1.3179700000 -0.0412888000
H 3.1568800000 -0.1813870000 -0.1921980000
H 2.3906600000 0.4891180000 -1.5355300000
H 1.7068400000 0.7293730000 1.7556500000
H 0.7147750000 -0.5759830000 1.9448800000
H -2.5833000000 0.1667430000 0.1912640000
H -1.4357000000 0.1241230000 1.5293200000
N 2.3290100000 -0.1591240000 -0.7671600000
N 1.4670900000 -0.1921960000 1.4037100000
O 0.3510630000 -1.2172700000 -0.3711480000
O -1.6897400000 -2.1480500000 -0.2932160000
O -1.3308500000 2.4062600000 -0.2459250000
O 0.5214100000 1.1034000000 -0.3424260000
