30
0 1
C -3.1149200000 0.0144428000 -0.0396694000
C 0.8828800000 -1.0577100000 -0.9326060000
C 1.9594500000 -1.6569000000 0.8882560000
C 2.9891200000 0.0741761000 -0.5754490000
C 2.8142300000 1.5030200000 -0.0028338300
C 0.6730810000 -2.1822500000 0.8000290000
C 0.3328890000 1.5470300000 0.6871870000
C -1.0428800000 1.4590200000 -0.0238436000
C -2.0409300000 0.6440590000 0.8181400000
C 1.4173500000 2.1001000000 -0.2388140000
H 3.0798100000 1.5851900000 1.0772200000
H 0.7689870000 -0.5494080000 -1.8828600000
H 0.1279350000 -2.8186800000 1.4938400000
H 2.7989200000 -1.8220300000 1.5904500000
H 4.0028200000 -0.2238290000 -0.2502680000
H 2.9891100000 0.1649960000 -1.6851100000
H 3.5474200000 2.1373700000 -0.5068690000
H 1.4184900000 3.2152900000 -0.1897210000
H -0.8817950000 1.0136000000 -0.9729550000
H 0.6135520000 0.4838330000 0.9789510000
H 0.2611970000 2.1459600000 1.6164500000
H -1.4411900000 2.4473500000 -0.2110310000
H -1.4232800000 -0.1160780000 1.3270200000
H -2.5256500000 1.3362900000 1.5438900000
H -1.9008700000 -1.4034700000 -0.4620440000
H 1.1035500000 1.7776000000 -1.2944200000
N 2.0420600000 -0.9222740000 -0.2205340000
N -0.0057726800 -1.8133200000 -0.3292600000
O -2.8048500000 -1.1228700000 -0.6662270000
O -4.1969800000 0.5110290000 -0.1595690000
