30
0 1
C 2.1770900000 -1.8449100000 -0.6456810000
C 1.4083000000 -0.5820740000 -0.1528690000
C 1.7449400000 -3.1560400000 0.0152590000
C -0.0740469000 1.2535600000 -0.3977660000
C 0.9360460000 2.4361400000 -0.1470520000
C -0.8976700000 0.9454190000 0.8337090000
C -2.0609300000 0.0515387000 0.2729590000
C -3.1761700000 0.4397510000 -0.3881680000
C -3.5155200000 -1.5358500000 0.2612840000
H 1.6245700000 1.4987500000 1.2781400000
H -5.1915700000 -0.4767420000 -0.5182490000
H -4.0373900000 -2.5791300000 0.3146200000
H -3.2821100000 1.3671200000 -0.8912990000
H -0.2834580000 0.3947120000 1.5727000000
H -1.1935800000 1.8064300000 1.3713900000
H -0.6920540000 1.7538900000 -1.0383800000
H 2.3126200000 -3.2618400000 0.9216140000
H 1.8249200000 -4.1230700000 -0.5793470000
H 0.6762540000 -2.9881800000 0.3413790000
H 2.0730400000 -1.7956800000 -1.7046000000
H 3.8618300000 -1.6541200000 0.7561510000
H 3.6979400000 -0.5831920000 -0.3277840000
H 0.4915730000 -0.0687665000 -1.8961800000
N 3.5526600000 -1.5508500000 -0.2128730000
N 0.5680160000 0.0539451000 -0.8970270000
N -2.2880700000 -1.3656300000 0.5755400000
N -4.1533300000 -0.4991930000 -0.3623670000
O 0.9411790000 3.4439000000 -0.8451200000
O 1.8975000000 -0.0653207000 0.8732030000
O 1.5501100000 2.3960100000 1.0677800000
