18
0 1
C 2.2278900000 -0.2131360000 0.0325784000
C 0.1495520000 -0.5618370000 0.0071036100
C -1.1532500000 -1.1428900000 0.0086932000
C -2.1999400000 -0.2813070000 -0.0072255400
C -2.0319200000 1.1142400000 0.0023806500
C -0.7948200000 1.7069500000 -0.0127802000
C 0.3236060000 0.8041350000 -0.0193083000
H 2.1453000000 1.8247300000 -0.2552130000
H -0.7036720000 2.7840500000 0.1302020000
H -2.9422200000 1.7057400000 -0.0133339000
H 4.1824900000 0.2226230000 0.5053700000
H -1.2211900000 -2.2276500000 0.0314766000
H 3.9061200000 -1.3332100000 0.0221160000
H -3.4454900000 -1.6890500000 0.0050317700
N 1.6554700000 0.9873500000 0.0274693000
N 3.6183500000 -0.3651150000 -0.0958249000
N 1.4130300000 -1.1948900000 0.0011025400
O -3.4820000000 -0.7294550000 -0.0029411700
