12
0 1
C -1.5505500000 -0.3005190000 0.0431156000
C 0.0802924000 1.2386700000 0.1733600000
H 4.1427800000 0.3835130000 -0.1875050000
H 2.7181800000 -0.3305090000 0.0007411220
H 0.0526898000 -1.7519300000 0.4248190000
H 0.1141800000 1.3285700000 1.2411100000
H 0.3502770000 2.0897400000 -0.3730750000
N -0.3506090000 -0.9220570000 0.0116152000
O 3.6629400000 -0.4431470000 0.0182342000
O -2.6426500000 -0.7625650000 -0.0123315000
O 0.7424430000 0.0551278000 -0.1820550000
O -1.2755200000 1.0388500000 -0.1346290000
