9
0 1
C -0.6131950000 -0.0869809000 0.0381415000
H -2.3013800000 0.9411120000 -0.0033328100
H -2.4838600000 -0.8773690000 0.2544340000
H 2.1762300000 -1.1030700000 0.0899325000
N -1.9932500000 -0.0344780000 -0.0724914000
N 0.1019940000 1.1474900000 0.0353678000
N 1.3044500000 0.7734680000 -0.0104787000
N 1.3279200000 -0.5449020000 -0.0408657000
N 0.1571950000 -1.1185500000 0.0070562000
