18
0 1
H 0.0650307000 0.7313150000 1.6244200000
H -0.9036660000 -1.7654300000 -0.4606270000
H 0.3384820000 -0.8729090000 -0.3714900000
H -3.0995500000 -0.9713970000 1.0144300000
H -1.5822900000 0.2534190000 -1.3223500000
H -0.2914860000 0.5716050000 -1.9805700000
H -1.3713600000 -0.5101850000 1.0845300000
H 0.5356800000 3.1304300000 0.2663870000
H 2.5442600000 -1.5657800000 -0.5500180000
H 3.3147800000 -0.4751090000 0.2342100000
H 0.9130130000 -0.3492370000 1.1523200000
H -0.2161400000 1.8621100000 -0.3529380000
O -2.2301100000 -0.7704110000 0.4931350000
O 0.1644850000 -0.1792600000 1.7269500000
O 2.5106000000 -0.6404810000 -0.2413480000
O 0.4376700000 2.1562500000 0.3326450000
O -0.9470160000 1.0108000000 -1.4988100000
O 0.0335185000 -1.5817500000 -0.8548630000
