19
0 1
C 0.7301110000 1.4999900000 -0.0253252000
C -1.9686100000 -0.0297117000 1.1024300000
C -2.1916100000 -0.1169140000 -1.0260800000
C 1.3150900000 0.1525550000 0.0008463590
C 2.7338700000 0.0250460000 0.2153380000
C 3.0041500000 -1.3066200000 0.0846794000
C 0.8475020000 -1.0988100000 -0.2108840000
H -0.1282600000 -1.5269200000 -0.4570020000
H 3.9298700000 -1.8717800000 0.1279170000
H 3.3500700000 0.8862650000 0.3548640000
H -2.0467600000 0.0505415000 -2.1052200000
H -1.6019200000 0.3200280000 2.0794300000
H -1.0330000000 2.5391400000 -0.0560860000
N -0.6625500000 1.5951400000 -0.2097160000
N -1.5485000000 0.5794840000 -0.0403997000
N -2.7881300000 -1.0075000000 0.8617960000
N -2.8999800000 -1.0876600000 -0.5302310000
O 1.3869300000 2.5109100000 -0.0106792000
O 1.8632100000 -1.9742400000 -0.1593300000
