15
0 1
H -0.6606890000 0.3198290000 1.3186900000
H -2.0260800000 -0.6907890000 1.1672800000
H 0.9057820000 1.4385300000 0.2804440000
H -0.2394040000 2.6835700000 0.4442220000
H 0.1229460000 -1.6233900000 0.4863920000
H -0.1545630000 -1.2675400000 -1.0179100000
H -1.6401600000 0.2086800000 -2.3569700000
H -1.0406900000 0.8917390000 -0.9142650000
H 1.6228200000 -0.4814840000 -0.0935992000
H 2.9671200000 0.1034940000 0.4849840000
O -1.0262600000 -0.5739970000 1.6113900000
O -0.1440890000 1.6995700000 0.1699110000
O 0.5209270000 -1.7514400000 -0.4291200000
O -1.6088500000 0.1077640000 -1.1630000000
O 2.2761400000 0.3202780000 -0.1640890000
