19
0 1
C 2.8665400000 -0.3439690000 0.0211427000
C 1.3902900000 0.0370438000 -0.0784149000
C 0.4518750000 -0.9538610000 0.0418385000
C -0.8927780000 -0.6084620000 -0.0251026000
C -1.9606000000 -1.5169100000 -0.1139700000
C -3.2294000000 -1.0765900000 -0.1923750000
C -2.6092300000 1.1622400000 0.2019140000
C -1.2499500000 0.7879760000 0.1802690000
C -0.2008210000 1.6965100000 -0.0106291000
H -0.2839530000 2.7537600000 0.1177600000
H -2.8683300000 2.2391800000 0.3518480000
H -3.9932600000 -1.7668100000 -0.3669010000
H 3.1993100000 1.4816700000 -0.2815990000
H 0.6942860000 -1.9697700000 0.0672538000
H -1.7795400000 -2.5553500000 -0.0063256100
N -3.6001900000 0.2877980000 0.0501079000
N 1.0832000000 1.2926500000 -0.1931430000
O 3.6843900000 0.6821750000 -0.1372730000
O 3.2224700000 -1.4758900000 0.2586700000
