17
0 1
C -0.7501660000 -0.6007670000 -0.0138142000
C 0.4743700000 -0.8031520000 -0.9257240000
C 1.7152900000 -0.0599014000 -0.4426490000
C -0.9165760000 0.9055350000 0.2911510000
H -2.2642400000 0.8164920000 -0.9436530000
H 2.8907400000 0.0539698000 0.9860430000
H 0.6567220000 -1.8780700000 -1.0675400000
H 0.1925130000 -0.4119050000 -1.8895000000
H -2.6847700000 -1.2221700000 -0.0265535000
H -1.7675300000 -1.9722800000 -1.1558000000
H 0.0339302000 -0.7583870000 1.7813100000
N -1.9068200000 -1.1013600000 -0.6884350000
O -1.8916800000 1.5212300000 -0.3874270000
O -0.5709480000 -1.2503200000 1.2228100000
O 2.1552800000 -0.5508090000 0.7242100000
O 2.1767700000 0.9239910000 -0.9913210000
O -0.2253230000 1.4098600000 1.1418500000
