21
0 1
C 3.4461200000 0.5420140000 0.0071899500
C 1.1385600000 0.0409681000 0.0207018000
C -0.3267830000 1.7716300000 -0.0087741800
C -1.2220400000 -0.3015300000 0.0120056000
C -3.5660900000 -0.4971110000 0.0118872000
C 0.0608716000 -0.8854770000 0.0161427000
H -3.6942300000 0.0929534000 0.9290110000
H -4.2840000000 -1.3117100000 -0.0299234000
H -3.6808800000 0.1654820000 -0.8469330000
H -1.4456300000 3.4760800000 -0.0721691000
H 3.3990100000 1.1734100000 0.9010510000
H 4.3575300000 -0.0533331000 -0.0001977440
H 3.3891400000 1.1704600000 -0.8948460000
H 0.2882820000 3.7246600000 -0.0750134000
N 0.9497410000 1.3527400000 0.0112095000
N -0.5123270000 3.1045500000 -0.0085150000
N -1.4292800000 1.0069900000 -0.0194862000
N 0.1140010000 -2.2908900000 -0.0452003000
O -2.2695600000 -1.1210500000 0.0205467000
O 2.3765500000 -0.4193310000 0.0225595000
O 1.2220000000 -2.7939600000 -0.0221004000
