15
0 1
H -2.1677200000 0.3641740000 -0.1625410000
H -3.0049800000 -0.8000430000 -0.7660250000
H -0.0988892000 1.5734100000 -0.0646415000
H -1.3215300000 2.8439500000 0.3060360000
H 1.8514100000 1.9335900000 0.8234070000
H 2.0121200000 0.6272140000 -0.0752678000
H 1.3529400000 -1.3339500000 0.0174829000
H 2.9787000000 -1.6129400000 -0.4945630000
H -1.0266500000 -1.3695100000 0.1919960000
H -0.1794240000 -2.6732000000 0.7426200000
O -2.5388200000 -0.5755440000 0.1140280000
O -1.0995100000 1.9657900000 -0.1129370000
O 1.5813600000 1.5100700000 0.0073896900
O 2.2149400000 -0.8278010000 -0.0382837000
O -0.2074650000 -2.0166000000 -0.0350100000
