12
0 1
C 0.4476760000 -0.5923760000 0.0122385000
H -1.8620000000 0.3351490000 1.2065700000
H -2.1498100000 0.8625170000 -0.3337880000
H -1.1498000000 -1.6820900000 -0.4601380000
H 2.0431700000 0.5062320000 0.2883620000
H -0.1340580000 2.2599800000 0.3518320000
H 0.3081800000 1.7476100000 -1.1635300000
N -1.9426200000 0.0681076000 0.2219210000
N -0.9258860000 -0.6990920000 -0.3435940000
N 1.0348000000 0.6001490000 0.3165640000
N 0.5911280000 1.8374200000 -0.2073810000
O 1.1195300000 -1.6401500000 0.0155859000
