29
0 1
C 0.5362610000 1.3090700000 -0.3122840000
C -0.8204630000 1.8058700000 0.1295010000
C 1.4863300000 1.2245600000 0.9034170000
C 2.6922900000 0.4053030000 0.5454340000
C 2.3983100000 -1.0150200000 0.1368880000
C -1.5486500000 -0.5429590000 0.6594610000
C -1.9150800000 -1.2016800000 -0.7126910000
C -2.3817100000 -1.1710300000 1.7748900000
H -0.1293620000 -1.9182900000 -0.8333600000
H -3.4573400000 -0.9153240000 1.5896000000
H -2.0727000000 -0.7704830000 2.7567400000
H -2.2763500000 -2.2380700000 1.7905500000
H -0.4395100000 -0.7015770000 0.9055270000
H -2.7242600000 1.2000900000 0.5474890000
H 3.4229400000 -2.5352000000 -0.2316530000
H 3.2426100000 0.9401360000 -0.2475290000
H 3.4744000000 0.3269600000 1.3789100000
H 1.7987600000 2.1954300000 1.3942100000
H 0.9056120000 0.7352280000 1.6303700000
H 0.3488440000 0.3281310000 -0.5787790000
H 0.5419160000 1.7315600000 -2.2188100000
H 0.9713410000 3.0307300000 -1.2949300000
N 1.1004800000 2.0621200000 -1.3873600000
N -1.7673800000 0.8511360000 0.5535320000
O -1.1769100000 2.9960600000 -0.0104159000
O 1.3722900000 -1.6566300000 0.2673390000
O 3.5472300000 -1.5570200000 -0.2401490000
O -2.8948200000 -0.9478450000 -1.3113600000
O -1.0505900000 -2.1704300000 -1.1428200000
