8
0 1
C -0.0435503000 0.1277480000 -0.0942681000
N 1.4029600000 -0.0074750600 -0.0055369700
N -0.8364610000 1.1672900000 0.0809807000
N -2.0654400000 0.5831710000 0.0809271000
N -2.0204800000 -0.6572220000 -0.0243495000
O 1.8144100000 -1.1227100000 0.1353150000
O 1.9639600000 1.0828100000 -0.0757856000
O -0.6662240000 -1.0059500000 -0.1043470000
