35
0 1
C -0.3174900000 -2.7806900000 0.2547850000
C 2.9104100000 -1.2234300000 -0.3944470000
C 1.7757400000 0.6735840000 0.7412250000
C 1.8497900000 2.1270500000 0.8210770000
C 0.0638460000 2.2012900000 -0.7728960000
C 1.7426600000 -2.1902200000 -0.6364450000
C -2.7380400000 0.6837200000 -0.5245020000
C -3.2162700000 -0.5840470000 0.1813160000
C -1.0780400000 -1.5291200000 0.1454950000
C -1.2171300000 2.4551000000 0.0570371000
H 0.1351850000 1.1276000000 -0.8705190000
H 1.1588800000 -1.7534100000 -1.4138700000
H 2.0525600000 -3.2142200000 -1.0717400000
H 3.7015000000 -1.2582700000 -1.0859900000
H 3.1999500000 -1.5427000000 0.5929070000
H 0.7336660000 0.4468360000 0.7439740000
H 2.2148800000 0.3185860000 1.7071300000
H 2.9242400000 2.3768700000 0.9103370000
H 1.3023800000 2.3338000000 1.7987900000
H 0.1440530000 2.5714300000 -1.8641500000
H -2.3613500000 0.5006000000 -1.5590500000
H -1.9570600000 3.2230000000 -0.3705410000
H -3.6034100000 1.3845800000 -0.7604350000
H -3.2030800000 -0.2295840000 1.2558200000
H -4.2524500000 -0.8004360000 -0.0115665000
H -0.9363270000 -0.9838490000 1.1855900000
H -0.5523040000 -0.9401580000 -0.6690910000
H -0.6531890000 -3.3482000000 1.1716200000
H -0.3839310000 -3.4204300000 -0.6807010000
H -0.8673180000 2.9227400000 1.0328000000
O 2.4491100000 0.1301500000 -0.4299460000
O -2.4985600000 -1.7259500000 -0.1434570000
O -1.8711000000 1.2961800000 0.4073910000
O 1.2710500000 2.7821200000 -0.3283620000
O 0.9682790000 -2.3217700000 0.5847270000
