25
0 1
C 1.0158100000 1.5040600000 0.0401583000
C 2.2809700000 -0.6097230000 -0.2431200000
C 1.7269400000 -2.0864600000 -0.3355700000
C 0.7684080000 -2.1079000000 0.7826920000
C 0.0408499000 -0.7930760000 0.6004210000
C -1.1245500000 -0.9009130000 -0.4356390000
C -2.4128000000 -0.0804652000 -0.2283610000
H -1.5105800000 1.3151700000 0.7418810000
H -0.7421160000 -0.5866820000 -1.4746700000
H -1.4699000000 -1.8747000000 -0.6108370000
H -0.3497010000 -0.3173050000 1.5532200000
H 0.0507509000 -2.8978100000 0.7728230000
H 1.3286900000 -1.9465800000 1.7422500000
H 1.1763400000 -2.3274800000 -1.2482400000
H 3.0378200000 -0.6254530000 0.5814820000
H 2.8185200000 -0.2997890000 -1.1563200000
H -0.3298520000 2.9821600000 0.2097080000
H 2.6449800000 1.8767700000 -1.2390400000
H 1.8625600000 3.0978300000 -0.6912990000
H 2.5174300000 -2.8128100000 -0.2340130000
N 2.1423700000 2.1896500000 -0.4023480000
N -0.0454751000 2.0499200000 0.5045530000
N 1.0806100000 0.1503080000 0.0455037000
O -2.4279600000 1.0548300000 0.5161740000
O -3.4534400000 -0.5380290000 -0.6492210000
