26
0 1
C 2.7560300000 0.2547690000 1.1323900000
C 3.2105400000 -0.8131890000 0.1259240000
C 2.1688200000 -1.0240200000 -0.9983930000
C -0.2395580000 -0.7568420000 -0.2827950000
C -2.4122400000 -0.6066530000 0.2579010000
C -1.2977800000 1.2376400000 -0.2862710000
H -0.4823560000 3.0040000000 -0.9036480000
H -2.1428400000 3.0599800000 -0.5247710000
H -4.2945300000 -0.6410020000 0.8842300000
H -3.4798200000 -2.1401500000 1.0368700000
H 0.7605510000 -2.4523700000 -0.3568700000
H 2.0286400000 -0.0609359000 -1.5284200000
H 2.5815000000 -1.7060200000 -1.7291600000
H 4.1582700000 -0.4864110000 -0.3191590000
H 3.3763500000 -1.7655900000 0.6218570000
H 3.5403600000 0.3627800000 1.8785500000
H 1.8984600000 -0.1217970000 1.6816900000
H 2.7064600000 2.3150300000 1.1390800000
H 1.6164900000 1.5682300000 0.0840542000
N 2.5859700000 1.5549200000 0.4644350000
N 0.8575910000 -1.4869100000 -0.5960190000
N -1.3283500000 -1.3869300000 0.1464270000
N -3.5611000000 -1.2380800000 0.5693150000
N -2.4755500000 0.7209560000 0.0499870000
N -1.2718000000 2.5848600000 -0.4417720000
N -0.1471060000 0.5817590000 -0.4290650000
