12
0 1
C 1.4209000000 -0.0874736000 -0.0737448000
C -0.1498030000 1.3293100000 0.0103491000
C -0.7962890000 0.1151530000 -0.0383110000
C -2.2212500000 -0.1769130000 -0.0142228000
H 2.5824200000 -1.5917800000 0.5601780000
H 3.4123400000 -0.0873993000 0.1269180000
H -0.6208910000 2.3205400000 -0.0008039980
H 0.1045320000 -1.8362300000 -0.2626000000
N 2.6346800000 -0.7205660000 -0.0134661000
N 1.1747100000 1.1920200000 0.0275195000
N 0.2616030000 -0.8359040000 -0.0388053000
N -3.3566700000 -0.4763450000 0.0635927000
