11
0 1
C 1.9620500000 0.2852110000 -0.0911718000
H -0.8397940000 -0.9353910000 0.1315850000
H -2.3969100000 1.2604400000 0.8631130000
H 3.7252200000 -0.7098720000 0.1562600000
H 3.7245500000 0.9427690000 0.7017240000
H 1.5777100000 1.2997200000 0.0648525000
N 3.2654000000 0.1826080000 0.2297700000
O -1.7402500000 -0.9844960000 0.5309220000
O -2.4803000000 -0.1754020000 -0.3251990000
O -2.0982000000 1.1522200000 -0.0556142000
O 1.2661400000 -0.5982180000 -0.5224710000
