9
0 1
C 1.4336600000 0.4057740000 0.0780668000
C -0.7335250000 -0.6470160000 -0.0025199800
C -1.2934500000 0.7664130000 -0.0424776000
H 0.9573570000 1.3606300000 0.2857450000
H 1.0714700000 -1.6399000000 0.2545210000
N 0.6476980000 -0.7428380000 0.0781766000
N -1.7937200000 1.7993300000 0.0066384300
O 2.6196600000 0.3519230000 -0.1152290000
O -1.4255100000 -1.6353300000 -0.0513192000
