20
0 1
C 2.8453300000 1.1100900000 -0.0712061000
C 2.1071500000 -0.2146920000 -0.0096390300
C 2.7598200000 -1.3537300000 0.0338448000
C 0.6168030000 -0.1162700000 0.0330151000
C -1.3778600000 -1.0739800000 0.0273993000
C -1.1980100000 1.1826300000 -0.0394966000
H -2.7610000000 2.4490100000 0.2765920000
H -1.2266500000 3.1881100000 0.0738361000
H -3.1293700000 -2.0785400000 -0.2973890000
H -1.7012100000 -3.0500200000 -0.2099860000
H 3.8342800000 -1.3154600000 0.0587452000
H 3.8977400000 0.9937580000 -0.4008330000
H 2.8509100000 1.5394800000 0.9484850000
H 2.3253000000 1.8370000000 -0.6873400000
H 2.2827400000 -2.3253500000 0.0452913000
N -1.7987700000 2.4020700000 -0.0220979000
N -0.0280985000 -1.2543200000 0.0401218000
N -2.1680800000 -2.1825100000 0.0063567000
N -2.0097200000 0.1005650000 -0.0058421200
N 0.1629340000 1.1567300000 0.0313319000
