17
0 1
C 2.4116100000 0.4132990000 0.1532630000
C 1.0169900000 0.1688940000 0.1141110000
C 0.0646750000 1.2166600000 0.0126492000
C -1.7279900000 -0.3665750000 0.0171319000
C 0.4975440000 -1.1368900000 0.0056318900
H 2.3759000000 -1.9667800000 0.1797470000
H 1.0221700000 -3.0892100000 0.0522355000
H -1.9603000000 1.6499000000 -0.0367595000
H 1.2359300000 2.7171500000 -0.3202660000
H 2.8928600000 0.1706860000 1.1054400000
H 2.8920800000 -0.1175390000 -0.7017360000
H 2.6743100000 1.4424300000 0.1040830000
N -1.2222300000 0.9307820000 -0.0360046000
N -0.7944790000 -1.4104600000 -0.1010410000
N 1.4407800000 -2.2098600000 -0.1817400000
O 0.3381850000 2.5184400000 -0.1266760000
O -2.9229900000 -0.4874670000 0.1306800000
