9
0 1
C -1.8036700000 -0.0272406000 -0.0606879000
C -0.2972560000 -0.0892550000 -0.2393750000
C 1.7470000000 -0.6734670000 0.1055500000
H 2.7271000000 -1.1951200000 0.4475640000
H 2.4219500000 1.3852100000 0.2732010000
N -2.9482200000 -0.0115936000 0.1976430000
N 0.5487140000 -1.1380900000 -0.1058680000
N 1.5899600000 0.6936920000 0.0573953000
N 0.3773290000 1.1059400000 -0.0854116000
