34
0 1
C 3.5303500000 1.4100800000 -0.3223990000
C 0.0095816200 -1.9942700000 -0.0836198000
C -2.2933700000 -1.8369900000 0.4305180000
C -2.8493200000 -1.1766400000 -0.8517440000
C -2.8893300000 1.0558400000 -0.0158945000
C 1.4148500000 -1.6994000000 0.4681120000
C 0.1806370000 1.4132600000 -0.1118430000
C 1.0954800000 0.7244690000 0.9436430000
C 3.0911600000 -0.0256329000 -0.2640410000
C -2.0381800000 2.3320100000 -0.0427894000
H -2.4161800000 -1.7238400000 -1.7445400000
H 1.3525700000 -2.0528900000 1.5180500000
H 2.1599300000 -2.2714900000 -0.0896993000
H -0.0367978000 -3.1060500000 -0.2200480000
H -0.0721789000 -1.5113100000 -1.0757500000
H -2.4006600000 -2.9066800000 0.2959410000
H -2.8642500000 -1.5454900000 1.3301200000
H -3.9280500000 -1.2899000000 -0.8383410000
H -2.7184200000 0.5956450000 0.9757190000
H -0.3073300000 0.7252950000 -0.7664510000
H -2.0469000000 2.6837000000 -1.0826000000
H -2.6123300000 3.0722400000 0.5194170000
H 0.8218600000 2.0547700000 -0.7300840000
H 0.4474430000 0.3574460000 1.7028300000
H 1.6831100000 1.5154300000 1.4267900000
H 3.6284900000 1.8181300000 0.7105150000
H 2.8873000000 2.0847000000 -0.8582960000
H 4.5608300000 1.4318500000 -0.7730750000
H -3.9368600000 1.3327100000 -0.1635260000
N 1.8768700000 -0.3307410000 0.3702990000
O -2.4239300000 0.1834060000 -1.0008500000
O 3.7484400000 -0.8886520000 -0.8528200000
O -0.7319010000 2.2550400000 0.5834900000
O -0.9489620000 -1.5704700000 0.8165940000
