30
0 1
C 1.7864100000 -1.6697900000 0.3244890000
C 0.3565400000 -1.4054700000 -0.1369180000
C 2.7158300000 -0.7073630000 -0.3478870000
C 2.4636100000 0.7449150000 -0.0428625000
C -1.6196300000 0.0766432000 0.4452730000
C -2.8563300000 -0.8095500000 0.1945300000
C -1.4433700000 1.1650900000 -0.6386260000
C -0.6498310000 2.3747600000 -0.0501331000
H -1.8676000000 -2.2429800000 -0.7707440000
H -1.0247300000 3.3340400000 -1.7807000000
H -0.1550070000 4.2999200000 -0.6297530000
H -2.4215300000 1.4536400000 -1.0594800000
H -0.8923710000 0.6943030000 -1.4422700000
H -1.8892400000 0.5263320000 1.3996700000
H 0.1813740000 -0.2707510000 1.5134300000
H 1.9777500000 1.8949300000 1.3348200000
H 3.7310600000 -0.9971240000 -0.1437150000
H 2.6172900000 -0.7404360000 -1.4354700000
H 1.7765000000 -1.6027600000 1.4212300000
H 2.9391400000 -3.3263700000 0.3476670000
H 1.3668400000 -3.6693000000 0.2889910000
N 2.0813500000 -3.0585800000 -0.0802256000
N -0.3755780000 -0.6518810000 0.7468120000
N -0.5355530000 3.4178700000 -0.9085480000
O -0.1956220000 -1.9013200000 -1.1319800000
O 2.4479800000 1.6242600000 -0.8528900000
O 2.2239400000 0.9240350000 1.2778100000
O -3.9524900000 -0.4420470000 0.5809290000
O -0.1232180000 2.3278900000 1.0625200000
O -2.7818800000 -2.0229000000 -0.4160300000
