18
0 1
H 2.3033800000 -0.4256630000 0.5022790000
H -3.7098100000 -0.0654692000 0.5573670000
H -2.7685700000 -0.8056020000 -0.4471960000
H 0.0471607000 -1.8700200000 0.9077360000
H 0.2740970000 -0.3138700000 0.8327030000
H -0.7791880000 1.7480200000 1.7691000000
H 3.6899000000 0.2532340000 0.6049210000
H -1.5872600000 1.4253300000 0.4472630000
H 0.3691560000 1.3567800000 -0.3926930000
H 1.7560100000 0.8997850000 -0.9746020000
H -0.0562463000 -0.5714820000 -1.0744400000
H -0.7747540000 -1.9928700000 -1.5028600000
O 0.6878420000 -1.1607400000 1.2003700000
O 0.8648910000 1.2057400000 -1.2224600000
O -3.0673200000 0.0135212000 -0.1102760000
O -0.6740570000 1.4230100000 0.8790620000
O 3.1000700000 -0.1598710000 -0.0542952000
O -0.7569160000 -1.2764200000 -0.8460990000
