33
0 1
C 2.8565600000 1.1673900000 -0.4280600000
C 2.3404800000 -0.2384790000 -0.2827070000
C 0.3438880000 -1.6022600000 -0.4641100000
C -1.0062600000 -1.4787500000 -1.1469200000
C 0.1541040000 -2.0470000000 0.9793730000
C -0.2156710000 -1.0475600000 2.0935200000
C -1.2746500000 0.0068654200 1.9520600000
C -1.4186800000 1.7251800000 0.1244130000
H -2.0467300000 -0.5582130000 -2.3806600000
H -3.2161000000 2.0726100000 -0.7294630000
H -3.2793400000 1.6921300000 0.9027030000
H -1.2557500000 2.6564400000 -1.5220800000
H 0.1965200000 1.1785200000 1.2685300000
H -1.4832800000 0.2346470000 3.0313300000
H -2.2183000000 -0.3712300000 1.5663500000
H -0.4973970000 -1.6672400000 3.0463900000
H 0.6906430000 -0.4626100000 2.3355600000
H -0.6396290000 -2.7883100000 1.0028900000
H 1.1140700000 -2.4691000000 1.3520900000
H 0.8519370000 -2.3878900000 -1.0004600000
H 0.4942750000 0.3535620000 -0.9313890000
H 3.1167900000 1.3873400000 -1.4724700000
H 3.7161700000 1.1897300000 0.1614570000
H 1.1125900000 2.2661300000 -0.5069510000
H 2.3721700000 3.1190500000 0.0696487000
N 1.9437400000 2.1703000000 0.1131680000
N 1.0997300000 -0.4383540000 -0.7639260000
N -0.8066370000 1.1910400000 1.2599300000
N -0.6836950000 2.2645500000 -0.7645690000
N -2.7977900000 1.5080000000 0.0359625000
O 2.9688200000 -1.1745800000 0.1757060000
O -1.9072100000 -2.3041400000 -0.9719110000
O -1.1859500000 -0.4246090000 -1.9941500000
