9
0 1
C 1.7615800000 -0.8740120000 -0.0211327000
C 0.7488350000 0.1108460000 0.0384455000
C -0.6306480000 -0.0072966200 0.0658634000
C -1.6240700000 -1.0086500000 0.0334737000
N 2.5882300000 -1.6819400000 -0.0093219300
N 1.0196000000 1.4350300000 -0.0191416000
N -0.0440180000 2.0933500000 0.0024505300
N -2.5234400000 -1.7366800000 -0.0363456000
O -1.1021000000 1.2382900000 -0.0329236000
