11
0 1
C 1.3690300000 -0.4434400000 0.0442981000
C 1.5161900000 1.0878900000 0.0270454000
C -0.5680090000 0.8111130000 -0.0143665000
C -1.1050900000 -1.3050700000 0.0328662000
H 2.5013800000 1.5441600000 0.1397020000
H -1.0447700000 -2.3859800000 -0.0431181000
N 0.4250860000 1.7860200000 -0.0413360000
N -1.8603500000 0.7759510000 -0.0047988100
N -2.2078500000 -0.5769330000 -0.0077436800
N -0.0921858000 -0.4885840000 0.0208875000
O 2.1772200000 -1.3170400000 -0.0505884000
