7
0 1
H 2.0527400000 -0.0129792000 0.0223059000
H 3.2307100000 0.6926480000 0.6131500000
H -2.7898600000 0.6320440000 -0.2823430000
N -1.3644100000 -0.5206410000 -0.1712840000
O 2.9717000000 0.1706400000 -0.1436290000
O -1.8802600000 0.6937980000 0.0462483000
O -0.2092790000 -0.5728420000 0.2031150000
