29
0 1
C 2.3088100000 -1.0529000000 0.3518140000
C 0.8605380000 -1.2399500000 -0.0609534000
C 2.9007700000 0.2008680000 -0.2902000000
C 2.0827400000 1.4180000000 -0.0560590000
C -1.4769000000 -0.3940270000 0.5031240000
C -2.4049200000 -1.6377000000 0.2156610000
C -1.6853800000 0.5899130000 -0.6254280000
C -1.4840300000 2.0102400000 -0.1213510000
H -0.9571220000 -2.4640300000 -0.5903910000
H -1.9254900000 3.7393800000 -0.4594660000
H -2.6926300000 0.6248840000 -1.0697500000
H -0.9555760000 0.4624830000 -1.4363000000
H -1.9335100000 0.0847126000 1.3889500000
H 0.2837180000 -0.1689750000 1.5696400000
H 3.0388600000 0.1131190000 -1.3941600000
H 3.9443200000 0.3099190000 0.0667623000
H 2.4288300000 -0.9862620000 1.4342300000
H 2.8625400000 -2.3897900000 -1.0442000000
H 2.7118500000 -3.0833000000 0.3910260000
H 1.0161000000 2.2476400000 1.2171600000
N 3.0717000000 -2.2554900000 -0.0600421000
N -0.0591092000 -0.7116010000 0.7913630000
O -2.1263400000 2.8918100000 -0.8754680000
O 0.4962220000 -1.8143500000 -1.0829400000
O 1.7441800000 2.2191200000 -0.8640780000
O 1.6907700000 1.5144600000 1.2455900000
O -3.5945400000 -1.5840300000 0.4970640000
O -0.8047680000 2.3637300000 0.8272560000
O -1.8454900000 -2.7265800000 -0.3339650000
