19
0 1
C 0.6370070000 1.5388700000 -0.0064220900
C -1.8996500000 -0.0790399000 1.0638800000
C -2.0533600000 -0.0771446000 -1.0582500000
C 1.2466000000 0.1823070000 0.0287856000
C 2.6693800000 0.0130453000 -0.0331715000
C 2.9041200000 -1.3670100000 -0.0500767000
C 0.6969410000 -1.0622700000 0.0290995000
H -0.2790820000 -1.4691700000 0.0601600000
H 3.7892700000 -1.9691900000 -0.0483703000
H 3.3726000000 0.8419540000 -0.1111180000
H -1.8634600000 0.1572170000 -2.0653700000
H -1.6911200000 0.1278310000 2.1103300000
H -1.0770600000 2.6441700000 -0.2759010000
N -0.7163350000 1.7112300000 0.0212764000
N -1.5668400000 0.6204670000 -0.0225037000
N -2.5845200000 -1.1202400000 0.7103530000
N -2.6154800000 -1.1326000000 -0.6814050000
O 1.4009100000 2.5223600000 0.0356050000
O 1.7147100000 -1.9945300000 0.0010387100
