10
0 1
H -2.1833100000 1.3798100000 -0.7588540000
H -2.3666100000 -1.2425800000 0.6823500000
H 3.1063100000 1.1199500000 0.1657940000
H 2.1818900000 -0.6462970000 1.1767300000
H 1.1997300000 0.0326967000 0.0546224000
N 2.0540100000 -0.5106840000 0.1736220000
O -1.9771500000 1.1910300000 0.1745780000
O -1.1679500000 0.0066023500 -0.0025718300
O -2.0614300000 -1.0822400000 -0.2257000000
O 3.1670200000 0.2510030000 -0.2633050000
