18
0 1
H 1.1184000000 -0.8049960000 -0.8159070000
H -3.3514200000 0.2804880000 -0.5382540000
H -2.1375700000 -0.6504720000 0.3055490000
H 2.5554700000 0.6506830000 -0.0928390000
H -0.8127020000 -0.8318910000 1.8434200000
H -0.2705120000 -1.3115100000 0.5223620000
H 2.6060700000 -0.5392230000 0.6929730000
H 0.5587190000 1.4995800000 0.5438240000
H -1.2986000000 1.2137700000 -0.6085690000
H 0.0571205000 0.9789160000 -1.4325200000
H 0.6873680000 -2.0317100000 -1.6321600000
H 1.2110200000 1.4763800000 2.1346500000
O 2.6285000000 -0.2930900000 -0.1938940000
O 0.3945040000 -1.1130500000 -1.3767800000
O -0.5120230000 1.6956100000 -0.9688860000
O 0.8762330000 1.0055900000 1.3763300000
O -1.0597900000 -1.4563000000 1.1425500000
O -2.4428400000 0.1699880000 -0.0946414000
