11
0 1
C -1.4281800000 -0.4297550000 0.0086991400
C 0.6595640000 -0.2935680000 0.1146240000
C 0.2168690000 1.1052900000 0.0199193000
H -3.2620800000 -0.1465960000 -0.1939910000
H -1.8536800000 1.6723200000 0.0687209000
N -0.4103320000 -1.2144300000 0.1021790000
N 1.9112000000 -0.6880360000 -0.0096530700
N 2.9921700000 -1.0114900000 -0.0919304000
N -1.1800400000 0.9077490000 -0.0206296000
O -2.6630800000 -0.8871950000 -0.0629516000
O 0.8174950000 2.1654300000 -0.0112919000
