9
0 1
C 0.7448790000 -0.7634540000 0.0071016700
C -0.6220690000 -0.0965370000 0.0171484000
H 1.5455200000 1.0303600000 0.0370320000
H 0.7840670000 -1.3900900000 0.9292750000
H 0.7384650000 -1.4252400000 -0.8783100000
H -1.4508900000 1.5813300000 -0.0685502000
O 1.8662400000 0.1248690000 -0.0204549000
O -0.5201900000 1.2488900000 0.0110260000
O -1.6403000000 -0.7033070000 -0.0111896000
