23
0 1
C 1.2465400000 0.4411870000 0.4623340000
C 1.0705100000 -0.6181550000 -0.6376580000
C 1.6366800000 1.7828100000 -0.2023770000
C -1.4247400000 -0.9116080000 -0.0851885000
C -1.7522400000 0.5339880000 0.1196080000
C -1.3378400000 -1.7799300000 1.1744600000
H -2.2306300000 1.9832400000 -1.0137800000
H -0.2821600000 -1.9009500000 1.3937200000
H -1.8887900000 -1.3848900000 2.0730400000
H -1.5870000000 -2.6956900000 0.8826580000
H -2.2884000000 -1.3316000000 -0.6625900000
H -0.3537140000 -1.3107700000 -1.8024100000
H 0.7459310000 2.0568600000 -0.9378530000
H 1.6460600000 2.6319600000 0.5161200000
H 2.5668600000 1.7255300000 -0.7358910000
H 0.3479590000 0.4370080000 0.9983280000
H 2.7466300000 0.6148730000 1.9068600000
H 3.0873300000 -0.2546400000 0.6163840000
N 2.3158100000 -0.0777445000 1.2714200000
N -0.2686110000 -0.9507540000 -0.8987390000
O 2.0373100000 -1.0820800000 -1.2432400000
O -1.6054500000 1.2943400000 1.0326000000
O -2.1161000000 1.0300800000 -1.1431600000
