10
0 1
C -2.4012900000 -0.0039850000 -0.3827410000
C -0.9680430000 0.0423099000 0.1170380000
C 0.7887740000 1.5844000000 -0.0164490000
H -2.6840900000 0.6900010000 -1.2010700000
N -0.3602690000 1.2684000000 -0.2584990000
N 2.1944400000 -1.0937500000 -0.2950420000
N 2.7193100000 -2.0760300000 -0.1985170000
O -3.1478200000 -0.8516460000 0.0355484000
O 1.8419400000 2.0318600000 0.2101800000
O -0.4074910000 -0.8197950000 0.7740700000
