15
0 1
C -1.7647300000 -0.1055340000 0.0731290000
C 0.2599340000 -1.1400100000 0.0443326000
C 0.8438260000 0.2135780000 -0.0736310000
C -0.0469906000 1.3131100000 0.0372840000
H -3.3283700000 -1.5366800000 -0.3113360000
H -3.8260200000 0.1493960000 0.1299480000
H 0.6220060000 -3.1098100000 0.2990660000
H -0.3546110000 3.1196900000 0.1075250000
N -3.0516000000 -0.5217610000 -0.2398590000
N -1.0549000000 -1.2145000000 -0.0415103000
N 2.2166000000 0.5964750000 -0.1179490000
N -1.4117700000 1.1618500000 0.2930690000
O 0.9914700000 -2.2243600000 0.1023700000
O 2.9548100000 -0.3622980000 -0.0405965000
O 0.3345320000 2.5286700000 -0.0577910000
