18
0 1
H -2.3317100000 -0.6163680000 -0.6744230000
H 1.9214700000 1.9650200000 -1.3324200000
H 2.3564600000 0.5075920000 -0.6852660000
H -2.4688100000 1.6273100000 -1.1962000000
H -1.7638600000 1.3942200000 0.0900811000
H -0.0210985000 2.0224200000 1.6714500000
H -2.9221700000 -1.8921400000 0.0125029000
H 0.7130160000 1.5572000000 0.3395700000
H 0.0158463000 -0.5240760000 1.1145700000
H -0.5748260000 -1.7424200000 0.3268340000
H 1.6021900000 -1.3549200000 -0.0632578000
H 3.1064600000 -1.4162200000 0.3426310000
O -2.5895200000 1.1595300000 -0.3716240000
O 0.2198930000 -1.4820600000 0.8274740000
O 2.1335400000 1.4762000000 -0.4734070000
O -0.1058400000 1.4410700000 0.9333670000
O -2.1127100000 -1.5560000000 -0.4537620000
O 2.5005200000 -1.2296900000 -0.4553070000
