30
0 1
C -1.9692800000 -1.4870100000 0.3475210000
C -2.4344100000 -0.4124390000 -0.6866110000
C -2.2485200000 -1.1277700000 1.8456400000
C -0.2036840000 0.6793240000 -0.2043170000
C -0.0674913000 1.9954500000 0.5203850000
C 0.8279170000 0.3033750000 -1.2914100000
C 2.3307400000 0.4521190000 -0.7998950000
C 3.0045300000 -0.6896350000 -0.1487370000
H -1.8444600000 2.5009000000 0.2130610000
H 2.7483100000 -2.3253400000 1.0041400000
H 1.3188300000 -1.6872100000 0.3748620000
H 2.3473200000 1.2306700000 -0.0432780000
H 2.9725300000 0.9897670000 -1.5148500000
H 0.6174800000 0.9114070000 -2.1493300000
H 0.6165520000 -0.7378320000 -1.5940500000
H -1.6846100000 1.2615800000 -1.6046300000
H -3.0423300000 -0.4520710000 2.0366500000
H -1.3510900000 -0.5306270000 2.1092600000
H -2.2940200000 -2.0674700000 2.5021000000
H -2.6977700000 -2.2772600000 0.1916000000
H -0.5260770000 -2.3102400000 -0.7381720000
H -0.5917110000 -2.9809700000 0.7444930000
H -0.1862180000 -0.0890713000 0.6110230000
N -0.6128890000 -2.0550400000 0.2141650000
N -1.5335100000 0.7361680000 -0.8150220000
N 2.3292400000 -1.7115700000 0.3875870000
O 4.2381600000 -0.5917030000 -0.0354267000
O -3.3562000000 -0.5338210000 -1.4442000000
O 0.9903880000 2.1594800000 1.1344800000
O -1.0125400000 2.9030900000 0.5769640000
