29
0 1
C -0.7920210000 0.5893020000 0.3426460000
C 0.3648410000 1.4629200000 -0.0281564000
C -2.1446000000 1.2485900000 0.1513300000
C -3.4116400000 0.3415110000 0.4550150000
C -3.3435800000 -0.7464220000 -0.4932320000
C 2.1746800000 -0.3629060000 0.5914710000
C 3.4887500000 -0.6252520000 -0.2844340000
C 1.3514800000 -1.5643000000 0.5164990000
H 2.6913600000 0.7365160000 -1.2909700000
H 0.3132620000 -1.2873500000 0.9128700000
H 1.3022500000 -2.1124300000 -0.3996590000
H 1.8715000000 -2.1965900000 1.2616100000
H 2.5614600000 -0.2581700000 1.5873700000
H 2.2515000000 1.8058300000 0.3494140000
H -3.0082300000 -2.5324000000 -0.7787880000
H -4.4249900000 0.8232010000 0.3526500000
H -3.3530100000 -0.1041570000 1.4256200000
H -2.0532500000 2.0871800000 0.8493860000
H -2.2697200000 1.5932700000 -0.8241210000
H -0.7720340000 -0.2778710000 -0.3477120000
H -1.3900900000 -0.2168910000 2.2539200000
H -0.0724073000 0.6841460000 2.3190500000
N -0.6489570000 0.1261680000 1.7228900000
N 1.6682200000 0.9583130000 0.1139630000
O 0.3772060000 2.6147100000 -0.4058270000
O -3.2689000000 -0.5321980000 -1.7075400000
O -3.3553300000 -1.9691300000 -0.0346045000
O 4.4202000000 -1.2911300000 0.0288829000
O 3.4630700000 0.1282210000 -1.3853400000
