15
0 1
C 1.1817000000 -0.7192840000 -0.0941068000
C -1.1020800000 -0.6798140000 0.1261450000
H -2.0260300000 1.9438300000 0.3978410000
H -1.9794400000 1.2808400000 -1.0953900000
H 1.2152500000 2.5229500000 -0.2521390000
H 1.4245500000 1.8252700000 1.2165800000
H -0.0381025000 -2.4919600000 0.0123571000
H -2.5445100000 -1.9797800000 0.0460192000
N -1.3967500000 1.6303600000 -0.3286640000
N -0.6483360000 0.6412450000 0.2819570000
N 0.6894630000 0.5930550000 -0.2101950000
N 1.5071900000 1.6488100000 0.2148710000
N 0.0484276000 -1.5018700000 0.0665026000
N -2.3595400000 -0.9781100000 0.0847585000
O 2.3234200000 -1.1176200000 -0.1602630000
