15
0 1
H -1.8899900000 -1.3817200000 0.2190190000
H -2.5428900000 -0.3881520000 1.2321700000
H 0.9445370000 -1.5418300000 -0.0674441000
H -0.1259950000 -0.6500650000 -0.6629980000
H 2.9229600000 -0.9963150000 0.8094620000
H 2.3165200000 0.1016610000 -0.1706520000
H 0.4046100000 1.3959700000 -0.1454030000
H 1.3779300000 2.4381600000 0.5629700000
H -1.8501700000 0.6210590000 -0.0017988500
H -1.4661000000 1.5938900000 -1.2122200000
O -2.6276800000 -0.6747370000 0.2462200000
O -0.0308713000 -1.4957000000 -0.2228570000
O 2.5340400000 -0.8649750000 -0.0664865000
O 1.3486500000 1.5249200000 0.2543540000
O -1.2355600000 1.3614200000 -0.2816190000
