11
0 1
C -1.1120300000 -0.6860640000 -0.1710650000
C 1.1072400000 -0.7097510000 0.1528850000
H 1.7705300000 2.1283700000 0.2406850000
H -1.7308300000 1.3224300000 1.1269000000
N 0.6444010000 0.6260800000 0.3038380000
N -0.6332450000 0.6513620000 -0.2901440000
O 1.4978400000 1.4822000000 -0.4237230000
O -1.4743000000 1.6100600000 0.2312680000
O -2.2545300000 -1.0524500000 -0.0834652000
O -0.0120985000 -1.4682300000 -0.0616300000
O 2.2319500000 -1.0738400000 0.1682540000
