38
0 1
C -1.5531800000 2.0977700000 0.2695480000
C 1.7161300000 -2.2407600000 0.6104660000
C 1.0331600000 -0.5326060000 2.4145300000
C 1.9061300000 -0.8228440000 1.1870100000
C 2.5814400000 0.1680510000 -0.9617410000
C 0.3414970000 -2.6893400000 0.0552288000
C -2.5393000000 -1.5577800000 -0.5436060000
C -2.3660400000 -0.2177500000 0.2180440000
C -2.1852000000 1.0422400000 -0.6344970000
C -0.0769615000 2.0016600000 0.4354770000
C 1.7672400000 0.3550510000 0.2809820000
H 1.2086100000 -1.1881700000 3.2040100000
H 2.8435500000 0.7758460000 -2.8047300000
H -0.5187550000 -2.3164700000 0.5851650000
H 0.2872440000 -2.4526500000 -1.0218800000
H 0.3481470000 -3.7284000000 0.2056970000
H 2.5346000000 -2.5352800000 -0.0075013900
H 1.9043000000 -2.9030200000 1.5200100000
H 1.2822500000 0.3910570000 2.9223900000
H -0.0471062000 -0.4691420000 2.2525600000
H 2.8581600000 -0.8240070000 1.6910800000
H -2.9134400000 -3.3641000000 0.0483814000
H -0.2837330000 0.1209160000 -0.3146070000
H -3.3373200000 -0.2383600000 0.8138050000
H -1.5643300000 -0.4253250000 0.9633880000
H -3.2315800000 1.3520600000 -0.9113460000
H -1.5846000000 0.7919850000 -1.4414300000
H -1.9279100000 1.9064000000 1.2241300000
H -1.7574900000 3.5394000000 -1.1047600000
H -1.3532800000 4.1076900000 0.4252540000
H 2.2829300000 1.2854100000 0.8395330000
N -1.9080800000 3.4124100000 -0.0898041000
N 0.4268550000 0.7733060000 -0.0777515000
O 3.5603300000 -0.5516960000 -1.1183900000
O 0.5985800000 2.8413100000 0.9733720000
O -2.1250600000 -1.8246700000 -1.6533400000
O -3.0560900000 -2.4876500000 0.3381940000
O 2.2208400000 0.9292200000 -2.0279500000
