30
0 1
C -1.6135400000 -0.4958430000 -0.1222200000
C -0.3382310000 0.2457020000 -0.5219870000
C -2.7422200000 0.5479390000 -0.1302370000
C -4.1182700000 -0.0144180000 -0.0032219800
C 2.0449100000 0.1375630000 -0.4909500000
C 2.8962000000 -1.0855600000 -0.6665380000
C 2.8891700000 1.0705000000 0.4433350000
C 2.3783200000 2.4760100000 0.3224740000
H 2.9937300000 -2.8505900000 -0.1820890000
H 2.8632000000 3.1653100000 1.0086100000
H 1.3051300000 2.4674400000 0.4656900000
H 2.5750700000 2.8257100000 -0.7009380000
H 1.8496700000 0.5019700000 2.0410400000
H 3.9243200000 1.0332300000 0.1469420000
H 1.8999200000 0.6811650000 -1.4019800000
H 0.7173520000 -1.0339800000 0.6199270000
H -5.8841100000 0.3538650000 -0.3239280000
H -2.4909600000 1.2103200000 0.7353410000
H -2.5541600000 1.1234400000 -1.0459100000
H -1.7721600000 -1.2982700000 -0.8008000000
H -1.5000200000 -0.3178400000 1.9519000000
H -2.2282300000 -1.7617700000 1.3502300000
N -1.5102400000 -1.0869500000 1.2473400000
N 0.7616660000 -0.1983920000 0.0916628000
O -0.3344950000 1.2306700000 -1.2282600000
O -4.3924900000 -0.9957890000 0.6131490000
O -5.0383000000 0.6670310000 -0.6997430000
O 3.9909700000 -1.0878000000 -1.1129000000
O 2.8208700000 0.5685440000 1.7545200000
O 2.3488400000 -2.1819000000 -0.1043920000
