15
0 1
C 0.0850894000 -0.3076810000 -0.1807500000
C 2.4236700000 -0.3411080000 0.1292550000
C 1.8200500000 1.0954800000 0.2481030000
H -3.1095100000 0.3505960000 0.1957130000
H -4.4684200000 -0.5903420000 0.2741030000
H 1.0960800000 -2.0945300000 0.1016080000
H 3.1064500000 -0.5235950000 0.9759490000
H 2.9457000000 -0.5280260000 -0.8765410000
H 2.4992000000 1.8329400000 -0.2377000000
H 1.6664000000 1.4749200000 1.2579600000
H -0.2456120000 1.5735200000 -0.2082680000
N 1.1635300000 -1.0974800000 0.1291150000
N 0.5650190000 0.9696520000 -0.4702440000
O -4.0974800000 0.3361360000 0.1779810000
O -1.0979000000 -0.7462370000 -0.2123020000
