20
0 1
C -0.5724900000 0.0082714400 -0.1836520000
C -2.0739000000 -0.3259310000 -0.1864420000
C 0.1966200000 -0.4231000000 1.1397400000
C 1.4978200000 0.2831200000 1.2613100000
C 2.1312600000 -0.3004100000 0.0627778000
H -3.6835600000 0.3507480000 0.4439650000
H 3.0281200000 1.5356200000 -0.5436960000
H 2.5813100000 0.3026080000 -1.9290000000
H 1.1644300000 1.2891700000 1.0850800000
H 2.1037300000 0.5389670000 2.0650900000
H 0.2457610000 -1.4559000000 1.1021500000
H -0.4971120000 -0.0183674000 2.0509300000
H -0.0955152000 -0.4946250000 -1.1509800000
H 0.3223280000 1.7026000000 -0.9425360000
H -1.3556000000 1.9151900000 -0.6205380000
N -0.4796440000 1.4612200000 -0.4314200000
N 2.4688000000 0.6785160000 -0.9168870000
O -2.5551400000 -1.3097500000 -0.6400750000
O 2.1741000000 -1.4181700000 -0.2855110000
O -2.7206900000 0.7159400000 0.3399950000
