19
0 1
C 0.3672920000 -1.4522900000 -0.2844070000
C -0.1814750000 -0.1561170000 0.4073260000
C -1.5668200000 -0.4899400000 0.9661010000
C 0.8758390000 0.4259490000 1.4457100000
H 2.3976400000 -0.2273140000 0.4042190000
H 0.8274480000 -0.2556470000 2.3738200000
H 0.5239410000 1.4569200000 1.7567500000
H -1.8856200000 0.3848120000 1.6405700000
H -3.2762500000 -0.1608190000 -0.0025236800
H 0.5588270000 -2.1371900000 0.6114270000
H -0.3591390000 -1.8587400000 -0.9308470000
H 1.5483500000 -0.8211230000 -1.6731800000
H -1.4064500000 -1.3968700000 1.5951200000
N -0.2676360000 0.8797030000 -0.6431810000
O 0.3134060000 0.7569290000 -1.7055800000
O 1.6700000000 -1.2401800000 -0.8166940000
O -2.4027900000 -0.8119830000 -0.1266600000
O 2.1577300000 0.6355390000 0.8796880000
O -0.9913930000 1.7712500000 -0.2909360000
