17
0 1
C -2.1270600000 1.3213700000 -0.5848570000
C -2.4259000000 -0.0433755000 0.2342720000
C -1.2741800000 -1.0551400000 0.0281584000
C 0.0979934000 -0.4211800000 0.1912720000
H 1.8571300000 -0.5865890000 -0.3923040000
H -1.3897900000 -1.5174100000 -0.9234320000
H -1.3428500000 -1.8881400000 0.7419330000
H -3.3393900000 -0.4789200000 -0.1833150000
H -2.6697800000 0.1198250000 1.2876500000
H -1.9736900000 1.0190600000 -1.6273800000
H -1.2229800000 1.7437800000 -0.1477040000
H -2.9836600000 2.0492200000 -0.5223980000
H 3.7993900000 1.3017900000 0.3957920000
H 4.2236800000 0.1611040000 -0.6081920000
O 3.4981600000 0.5646190000 -0.1297120000
O 1.0218400000 -1.1087300000 -0.5061420000
O 0.4071030000 0.4523850000 0.9816390000
