25
0 1
C -3.9578500000 -1.0082400000 -0.1592840000
C -2.8652300000 -0.4948420000 0.7238310000
C -1.2728000000 1.3373600000 0.5967900000
C 0.9979760000 2.2900300000 -0.0338702000
C 2.0453100000 0.4860910000 -0.1571950000
C 0.7141480000 0.0944808000 0.0908825000
C 1.4197500000 -2.1428700000 0.0748318000
C 3.1233700000 -0.4647710000 -0.1047140000
H 1.1668700000 -3.2010400000 0.1626780000
H -0.5406990000 -1.5176800000 0.2728620000
H 0.8241480000 3.2883600000 0.2038000000
H -1.7115000000 2.3956300000 0.2158510000
H -1.3936700000 1.1049200000 1.6891100000
H -3.2574900000 0.2253100000 1.4563300000
H -2.4704100000 -1.4120800000 1.1410600000
H -4.6770500000 -1.7068000000 0.4010150000
H -3.4315500000 -1.5167600000 -0.9759260000
H -4.0212100000 0.4602090000 -1.3991600000
N 0.0460863000 1.2797800000 0.1095530000
N 2.2196500000 1.8257600000 -0.2271610000
N 0.3896910000 -1.2132900000 0.0260736000
N 2.6934400000 -1.8465600000 0.0631559000
O -4.6525700000 0.0551328000 -0.7840290000
O -2.0383200000 0.2862720000 -0.0928349000
O 4.2962000000 -0.2193230000 -0.2677090000
