11
0 1
H -1.6411600000 0.9084120000 -1.0024300000
H -2.1996500000 1.3573200000 0.4079910000
H -2.6956000000 -0.7531760000 0.9548350000
H -1.9112000000 -1.3265200000 -0.2743570000
H 2.3541600000 -1.0836100000 0.7462400000
H 1.0109500000 0.6679920000 0.4399880000
H 2.6091200000 1.1216400000 0.5374830000
N -1.6542300000 0.6049510000 -0.0266195000
N -2.5396800000 -0.5723640000 -0.0299793000
N 1.9185300000 0.6489840000 -0.0404403000
O 2.3001300000 -0.7078830000 -0.1413100000
