15
0 1
C -0.8215380000 0.5632140000 0.5018700000
C -1.8430900000 -0.4591910000 -0.0946526000
C 0.6634920000 0.1652650000 0.1696570000
H -1.7590800000 2.4564400000 0.5992050000
H -1.4934300000 1.8170200000 -0.7955720000
H -0.7974810000 0.4829650000 1.5526900000
H -0.3876210000 -1.7145400000 0.0936148000
H 1.6553100000 1.9875800000 -0.3795750000
N -0.9929740000 1.9274200000 0.1432160000
N 1.1901900000 -1.0326600000 0.2758690000
N 2.4266000000 -0.9447350000 -0.0490848000
N 2.7796100000 0.2164940000 -0.3587470000
N 1.6492300000 1.0131100000 -0.1661830000
O -1.4130700000 -1.7302700000 0.0769624000
O -2.9093600000 -0.1325550000 -0.5078490000
