9
0 1
C 0.7340600000 -0.1241390000 -0.1063890000
C -0.7165060000 0.0580612000 -0.0537220000
H 2.3443800000 0.7812100000 0.7694260000
H 0.8162100000 1.7962100000 0.5727550000
H -2.2328800000 -0.3927460000 0.9446830000
N 1.4075300000 0.9138170000 0.4911890000
O 1.2170600000 -1.1530600000 -0.5328500000
O -1.3054700000 -0.6316260000 0.8070070000
O -1.2723000000 0.7615670000 -0.8697220000
