10
0 1
C 1.3727800000 -0.1255150000 0.1208270000
C -0.6717820000 0.7225460000 -0.1628460000
H -2.2795000000 -0.5020330000 1.0357900000
H -2.6406600000 -1.4038200000 -0.3244190000
N -1.8418200000 -1.1403500000 0.3554270000
N -0.7285910000 -0.6117520000 -0.3284800000
O 0.5372930000 -1.1224500000 -0.3001020000
O 2.5974500000 -0.0860386000 0.2736140000
O 0.7664490000 1.0487100000 -0.1243450000
O -1.5628100000 1.4833200000 0.0698477000
