26
0 1
C -1.3331200000 1.6620200000 0.2656040000
C -0.0830718000 0.8840350000 0.5671490000
C -2.2629000000 0.8387200000 -0.7204680000
C -2.7472200000 -0.5390810000 -0.1720420000
C -1.8180500000 -1.6983600000 -0.0174364000
C 2.3656000000 0.8609190000 0.3541410000
C 2.9272800000 -0.4386470000 -0.2091300000
H 1.2202100000 -0.8589680000 -0.7477950000
H 3.0680500000 1.6943700000 0.0621975000
H 2.3347000000 0.7757030000 1.3997300000
H 0.9263820000 1.9354900000 -0.8334550000
H -0.2275800000 -2.3174300000 -0.2457590000
H -3.1086400000 -0.3795710000 0.8446820000
H -3.6126900000 -0.9017990000 -0.8212960000
H -3.0988400000 1.5015600000 -0.8916010000
H -1.7426400000 0.7625930000 -1.7249400000
H -1.8896800000 1.7546700000 1.2113200000
H -0.6116830000 3.5574400000 0.3842440000
H -1.8879800000 3.3658500000 -0.6680800000
N -1.0240500000 2.9940600000 -0.3650130000
N 1.0228000000 1.2466400000 -0.1574270000
O -0.0219457000 0.0699364000 1.4844900000
O -2.1234800000 -2.6674100000 0.6566630000
O -0.7175570000 -1.6420600000 -0.7726440000
O 4.1328200000 -0.6728800000 -0.0872592000
O 2.0236600000 -1.3366400000 -0.6211360000
