9
0 1
C 1.4756900000 0.3862950000 0.0809187000
C -0.7939110000 -0.6495170000 0.0195585000
C -1.3135200000 0.7608010000 0.0236516000
H 0.9119270000 1.3333100000 0.2495800000
H 1.0129800000 -1.6290300000 0.1673360000
N 0.6093900000 -0.6978170000 0.0828772000
N -1.6922000000 1.8537200000 -0.0390811000
O 2.6602600000 0.2686990000 -0.1154300000
O -1.4796100000 -1.6163300000 -0.0681026000
