33
0 1
C 3.4065700000 -0.0103117000 0.5057990000
C 2.1879300000 0.7641740000 0.0190835000
C 0.5318620000 -1.1251700000 0.4617840000
C 0.1372320000 -1.8070200000 -0.8844000000
C -0.4279020000 -1.2725500000 1.6193400000
C -1.4499500000 -0.1859530000 1.9130300000
C -2.7627000000 -0.3032150000 1.1681300000
C -2.2104800000 1.2584600000 -0.6456450000
H -1.3060300000 -2.6739900000 -1.7497100000
H -3.9659600000 2.2673100000 -0.0624331000
H -2.6652600000 3.2376300000 -0.6031470000
H -1.0946400000 2.3063000000 -1.7070400000
H -2.2906200000 -0.7820020000 -0.7865930000
H -3.1011500000 -1.3410800000 1.1989700000
H -3.5267100000 0.3416490000 1.6094600000
H -1.7197300000 -0.3143830000 2.9600600000
H -0.9963110000 0.8125990000 1.7834300000
H 0.2177000000 -1.3736500000 2.5098400000
H -0.9122980000 -2.2551700000 1.5042500000
H 1.4682200000 -1.6099200000 0.7480920000
H 0.2077010000 0.8421640000 -0.3134280000
H 3.2300200000 -0.4035140000 1.5068000000
H 3.5048100000 -0.9356730000 -0.0964472000
H 4.6532300000 1.1614000000 -0.5277630000
H 4.3976200000 1.5480600000 1.0117700000
N 4.6102700000 0.7567260000 0.4087360000
N 0.9035650000 0.2724430000 0.1719180000
N -2.6551700000 0.0020481300 -0.2495170000
N -1.2059000000 1.3405000000 -1.4159500000
N -2.9554600000 2.3801700000 -0.1656040000
O 2.3288200000 1.8791500000 -0.4205990000
O 0.8445800000 -1.9270700000 -1.8321900000
O -1.1055500000 -2.2022600000 -0.8942050000
