16
0 1
C 2.0753000000 -0.0037652400 -0.0030996000
C 1.4066900000 1.2297800000 -0.0533098000
C 0.0276101000 1.2675700000 -0.0500624000
C -0.6699650000 0.0568153000 -0.0198687000
C 1.2910900000 -1.1838800000 -0.0708131000
C -2.1810600000 0.0814834000 0.0232093000
H 3.8324400000 -0.9447320000 0.4114670000
H 4.0052900000 0.7154460000 0.2146960000
H 1.9358900000 2.2226300000 -0.0641719000
H -0.5498920000 2.2017900000 -0.0840881000
H 1.8012000000 -2.1261800000 -0.0737158000
H -2.0793900000 -1.8156000000 -0.0558934000
N 3.4526000000 -0.1161130000 0.0324982000
N -0.0250319000 -1.1269700000 -0.0281698000
O -2.7664300000 -1.1383100000 0.0201301000
O -2.8131300000 1.1083400000 0.0630040000
