15
0 1
C -1.1798500000 -0.6421200000 0.1773440000
C 1.1070200000 -0.7152050000 -0.2106020000
H 2.0985400000 1.7753500000 -0.2819240000
H 1.8099700000 1.3459900000 1.2842300000
H -1.0203200000 2.4739000000 0.1039760000
H -1.5605500000 1.6710200000 -1.2548500000
H -0.1042780000 -2.3957400000 -0.0473036000
H 2.5977500000 -1.9617000000 -0.0542747000
N 1.3501300000 1.6124300000 0.3873130000
N 0.6326470000 0.6165390000 -0.3416000000
N -0.6824670000 0.5997100000 0.1068580000
N -1.4696100000 1.6086300000 -0.2026940000
N -0.0174122000 -1.4354900000 -0.0447441000
N 2.3251000000 -0.9557940000 -0.0608436000
O -2.2941000000 -1.1358700000 0.1924580000
