30
0 1
C -3.1111300000 0.1595670000 -0.0614225000
C 0.7815370000 -1.2278700000 -0.9376070000
C 1.7251000000 -1.5977000000 0.9763340000
C 3.0084900000 -0.1366580000 -0.5946820000
C 2.9533700000 1.3250000000 -0.0818921000
C 0.4763460000 -2.1972700000 0.8882010000
C 0.4646340000 1.7166100000 0.7018890000
C -0.8165980000 1.4146900000 -0.1008360000
C -1.9514000000 0.7546990000 0.7265000000
C 1.6267100000 2.0965000000 -0.2467580000
H 3.2530900000 1.3797300000 1.0034200000
H 0.7117030000 -0.7971990000 -1.9316600000
H 0.0589307000 -2.7974200000 1.6925900000
H 2.5238200000 -1.5374700000 1.6777800000
H 3.9446100000 -0.6035460000 -0.1334120000
H 3.0492200000 -0.1713330000 -1.6661000000
H 3.7712800000 1.8539700000 -0.6222190000
H 1.9179500000 3.1713200000 -0.1451350000
H -0.5095660000 0.7868640000 -0.9664240000
H 0.6745860000 0.9026490000 1.3999000000
H 0.2672170000 2.5694700000 1.3611800000
H -1.1638000000 2.4198800000 -0.4957810000
H -1.4724100000 -0.0431632000 1.3819000000
H -2.3243500000 1.5505000000 1.3565100000
H -1.9789900000 -1.2762300000 -0.5716350000
H 1.2794100000 1.9751100000 -1.2545500000
N 1.8671700000 -0.9581460000 -0.1982230000
N -0.1643320000 -1.9368300000 -0.3479020000
O -2.9462300000 -1.0916000000 -0.5903820000
O -4.1618900000 0.7211400000 -0.1448470000
