19
0 1
C -1.2702100000 -0.7771510000 0.2677300000
C -1.4642400000 0.7158870000 0.1097490000
C 0.1266470000 -1.2625200000 -0.0889166000
C 1.2304900000 -0.6456900000 0.7845750000
C 2.3152100000 0.0472654000 -0.0289978000
H -2.7349800000 2.0163500000 -0.0274794000
H 0.8399010000 0.0207363000 1.5742200000
H 1.7780600000 -1.4838900000 1.2260900000
H 0.1309290000 -2.3485400000 0.0067207700
H 1.0861000000 1.5243000000 -0.0812670000
H -3.2459100000 -1.3100900000 -0.1575290000
H -2.1836100000 -1.4424700000 -1.3998900000
H -1.3909700000 -0.8775690000 1.3652100000
H 0.2900580000 -1.0829100000 -1.1697700000
N -2.2961200000 -1.6119800000 -0.4026210000
O 3.3687900000 -0.4292190000 -0.2881850000
O -0.6247620000 1.5798700000 0.1531190000
O 1.9922500000 1.2816700000 -0.4022000000
O -2.7518000000 1.0428300000 -0.0605820000
