19
0 1
C 1.2878100000 -0.8385620000 0.1565290000
C 0.4816310000 -2.0890500000 0.3927150000
C -0.8654740000 -2.1805000000 -0.2911040000
C -1.5168300000 -0.8428870000 -0.1570680000
C -0.8431560000 0.3809850000 -0.0265695000
C 0.6077360000 0.4661940000 0.1526390000
H 1.1561000000 3.3827600000 0.0493969000
H -0.7785380000 -2.4237200000 -1.3314600000
H -1.4682800000 -2.9047400000 0.2195450000
H 1.1471000000 -2.8991200000 0.1785860000
H 2.7651800000 0.8399520000 -0.2612210000
H 0.3597020000 -2.1778000000 1.4860900000
N 2.5415200000 -0.9976640000 0.0208886000
N -2.7936900000 -0.6001770000 -0.1311820000
N -1.7395700000 1.3278700000 0.0979036000
N 1.2141200000 1.5935100000 0.0901139000
O -2.9370200000 0.7184980000 0.0453639000
O 3.3770800000 0.0240254000 -0.3001630000
O 0.4789040000 2.7000700000 -0.0261816000
