8
0 1
C 1.3288600000 -0.0085059600 0.0093831400
C -0.8077710000 -0.7499650000 0.0210214000
C -0.7647050000 0.7715990000 0.0100806000
O 2.4968000000 -0.0198928000 -0.0271339000
O 0.5144780000 -1.1382600000 -0.0044484600
O -1.7122200000 -1.5047400000 -0.0045407600
O -1.6719300000 1.5346700000 -0.0306401000
O 0.5555860000 1.1183800000 0.0363992000
