13
0 1
C 1.1828700000 0.0780522000 -0.0543731000
C -1.3194900000 -0.1662120000 0.0043836300
H 3.1265100000 -0.4739800000 0.1969140000
H 1.9867500000 -1.7094400000 0.5631210000
H 2.2059500000 1.6296900000 -0.2960710000
H 0.0983658000 -1.5544300000 -0.1250830000
H -2.3210100000 1.5276800000 -0.0160433000
H -0.5938540000 1.7232700000 0.0165620000
N 2.1763200000 -0.8673030000 0.0681822000
N 1.2165400000 1.3426400000 -0.1990600000
N -0.0213994000 -0.5898700000 0.0227146000
N -1.4163400000 1.1799300000 0.2918990000
O -2.1711000000 -1.0089500000 -0.1657020000
