8
0 1
C -1.1809700000 -0.3903590000 0.0101157000
C 1.2028700000 -0.3393480000 -0.0232338000
N -1.1687200000 1.0396300000 -0.1048090000
N -0.1566190000 1.7216900000 -0.0408844000
O -2.1982100000 -0.9810920000 0.1097330000
O 1.0629900000 1.0052100000 0.1419820000
O 2.2506600000 -0.8606260000 0.0047716100
O 0.0277969000 -1.0323700000 -0.1191670000
