25
0 1
C 1.3747000000 0.0096882500 -0.2573190000
C 0.6477720000 -0.1140160000 1.1338400000
C 2.5932300000 -0.8270630000 -0.1436350000
C -1.7490100000 0.3443920000 0.4329000000
C -2.1281700000 -0.9247270000 -0.3665890000
C -1.5792200000 1.4416300000 -0.5721550000
H -2.1500800000 -2.7823000000 -0.3242280000
H 0.0536896000 2.4439000000 -0.2238020000
H -1.0769500000 1.0906300000 -1.4762500000
H -2.6225300000 1.7129900000 -0.8677900000
H -2.6649800000 0.5352000000 1.0309400000
H -0.9140430000 0.0423491000 2.3136300000
H 2.3733600000 -1.8558600000 0.1918290000
H 3.2279400000 -0.3789160000 0.6189290000
H 0.8250950000 -0.3790470000 -1.0864400000
H 2.2328300000 1.4618800000 -1.3688500000
H 2.2255500000 1.7903300000 0.2690870000
H 2.8439100000 -1.2504600000 -2.0570900000
N 1.6636000000 1.4044200000 -0.5043100000
N -0.6623080000 0.1985040000 1.3544000000
O -0.9023990000 2.5813000000 -0.1122530000
O 1.3134200000 -0.3889590000 2.0928700000
O 3.3127600000 -0.8083900000 -1.3620500000
O -2.7062000000 -0.9390280000 -1.4083000000
O -1.8074100000 -2.0987400000 0.2481200000
