10
0 1
C 1.3728300000 -0.0339933000 0.0497444000
C 0.5254570000 -1.2689600000 0.2255090000
C -0.8802970000 -0.7570740000 -0.0855685000
C -0.7221950000 0.7654470000 0.0031719700
H 0.4105240000 -1.5144600000 1.2158700000
H 1.0144300000 -2.0973600000 -0.2953170000
O 2.5360400000 0.0132370000 -0.2577170000
O -1.9791000000 -1.3180200000 -0.1402750000
O -1.5585900000 1.6152800000 -0.0337683000
O 0.6016830000 1.1119100000 0.1720490000
