38
0 1
C -1.8853700000 1.9094500000 -0.1736740000
C 2.4477600000 0.7452560000 -0.3558350000
C 1.2559700000 -1.0875000000 1.0208400000
C 1.2931200000 -0.2409320000 -0.2697650000
C -3.0349800000 -2.0037700000 -0.6215760000
C 3.7960900000 -0.0060058300 -0.6448460000
C -3.0254900000 -0.1328160000 1.1450400000
C -2.9053700000 1.4212800000 0.9178400000
C -0.4299120000 1.4366800000 0.2214930000
C -3.8459100000 -0.9449550000 0.1089330000
H -2.5598200000 -1.5344200000 -2.5598100000
H 2.2273000000 -1.6208700000 2.5069000000
H 4.8101200000 1.6104200000 0.1096660000
H 5.7360300000 0.3718010000 -0.6417480000
H 2.2883800000 1.3920000000 -1.2315900000
H 2.4545900000 1.3971200000 0.5296670000
H 1.4768800000 -0.9734510000 -1.0761500000
H -0.6819590000 -0.1112530000 -1.0112900000
H -1.3017600000 -2.1131500000 -1.7583600000
H -3.7569500000 -2.7102500000 -1.0495900000
H -4.3196500000 -0.2512150000 -0.5979200000
H -2.3269200000 0.5224510000 -1.5856600000
H -4.6640000000 -1.5071800000 0.5848970000
H -2.0062600000 -0.5322140000 1.1184000000
H -3.3928600000 -0.3521430000 2.1823100000
H -2.6529200000 1.8378100000 1.8988500000
H -3.8809800000 1.8697900000 0.6654890000
H -1.9005300000 3.0060700000 -0.0863386000
H -3.2392400000 1.9000100000 -1.7190000000
H -2.4661300000 -2.6012100000 0.1003730000
N -2.3106700000 1.5463000000 -1.4882500000
N -2.0998700000 -1.4957700000 -1.6531700000
N 0.0389760000 0.4324310000 -0.5286370000
N 4.8599900000 0.8436240000 -0.5465490000
O 0.3556490000 -1.7873400000 1.3467700000
O 3.9048400000 -1.1586000000 -1.0320600000
O 0.2120920000 2.0296800000 1.0588500000
O 2.3702200000 -1.0170300000 1.7572400000
