12
0 1
C -0.0336665000 0.0267080000 0.0805803000
H 1.3379400000 -1.4832500000 0.9785330000
H -0.8562650000 -1.7177600000 -0.0524807000
H 1.7569700000 0.0906033000 -0.5774150000
H 0.1314870000 2.0124900000 -0.5540000000
H -2.9010100000 0.3687600000 0.5782870000
N -0.0025314700 -1.2598200000 -0.4371560000
N 1.1566400000 0.6135490000 0.1646430000
N -1.0805100000 0.6848120000 0.1966180000
O 1.1905400000 -1.7900600000 0.1235190000
O 1.0434800000 1.9485400000 -0.0961912000
O -2.2068200000 -0.1210860000 -0.0679710000
