32
0 1
C 1.6122500000 1.6537900000 0.4187430000
C 0.3422190000 1.8097000000 -0.5116800000
C 2.7647100000 1.1946100000 -0.5284830000
C 2.7702100000 -0.2349190000 -1.0555000000
C 2.7995500000 -1.1379000000 0.1297580000
C -0.8973010000 -0.3490890000 0.2809460000
C -1.1645900000 -1.4719500000 -0.7250680000
C -2.0740000000 -0.0908219000 1.3153500000
C -3.3307500000 0.3636210000 0.5542130000
H 0.3750080000 -2.3618300000 -0.3809450000
H -5.2279900000 0.0805344000 0.8011120000
H -1.6415400000 0.6890010000 2.0216500000
H -2.1830000000 -0.9960980000 1.9235600000
H -0.1259210000 -0.5962760000 0.9955880000
H -1.3401700000 0.9260490000 -1.3508000000
H 3.7608300000 -1.5118600000 1.6756000000
H 3.6997800000 -0.4558990000 -1.7102600000
H 1.7703300000 -0.3891630000 -1.5176900000
H 2.7111600000 1.8486400000 -1.3442000000
H 3.6613100000 1.3719800000 0.0281371000
H 1.8955500000 2.7143500000 0.6255210000
H 2.3043300000 0.4393570000 2.0702600000
H 0.9541400000 1.4265100000 2.4208600000
N 1.4211900000 0.8672330000 1.6568100000
N -0.6156480000 0.7972710000 -0.6213280000
O 0.3137570000 2.7856300000 -1.2064100000
O 2.0235700000 -2.0432800000 0.2640650000
O 3.7440600000 -0.7703570000 1.0704000000
O -2.1099800000 -1.3378900000 -1.5238600000
O -3.2976200000 1.0907500000 -0.3974670000
O -4.4110800000 -0.3149820000 1.0893000000
O -0.4110120000 -2.5672400000 -0.8930870000
