34
0 1
C 2.6123700000 -1.0399300000 0.6785390000
C -3.2631000000 0.5751900000 0.0417591000
C -2.1777200000 1.1091400000 0.9403440000
C -0.8234630000 0.4173000000 0.9087270000
C -3.6055600000 -0.8907310000 0.2623700000
C -0.0719208000 0.5533470000 -0.4232860000
C 2.1922800000 -0.3017000000 1.9281500000
C 1.5165600000 -1.5621400000 -0.2783220000
C 0.8065020000 1.7612000000 -0.5733520000
H -2.0001100000 2.1697200000 0.6714850000
H 1.6892500000 0.6891440000 -1.8169500000
H -5.5489300000 -0.8295710000 -0.3047010000
H -4.4700800000 -1.1250200000 -1.5073800000
H -3.7621200000 -1.0437500000 1.3345100000
H -2.7338600000 -1.5480800000 0.0450388000
H -4.1749700000 1.2209800000 0.1917300000
H -2.9484600000 0.7158890000 -1.0164200000
H -2.5095000000 1.0582300000 1.9873700000
H -0.8426680000 0.6456280000 -1.1944400000
H -0.1901080000 0.9076310000 1.6693900000
H -0.0173315000 -1.2472500000 -1.4387400000
H 1.4164600000 -0.8965020000 2.4569400000
H 3.0531000000 -0.2962370000 2.6134600000
H 1.9073000000 0.7245890000 1.6817100000
H 3.1488900000 -1.9265100000 0.9910530000
H 3.9661800000 -0.7776430000 -0.8537000000
H 3.2155900000 0.6241520000 -0.3260240000
H -0.9256580000 -0.6421630000 1.1638200000
N 3.6303900000 -0.2584030000 -0.0463294000
N 0.5723500000 -0.6748470000 -0.8387030000
N -4.6923900000 -1.3066400000 -0.5315020000
O 0.6561180000 2.8341700000 -0.0392280000
O 1.5334800000 -2.7105400000 -0.6746580000
O 1.8152700000 1.5671100000 -1.4538600000
