14
0 1
C -0.0098644500 0.6122470000 0.3845160000
C 0.6559320000 -0.6938950000 0.0575038000
C -1.3446400000 0.7001600000 -0.3051900000
H 0.8528740000 2.4277400000 0.6748040000
H 0.5481050000 2.0989200000 -0.8160630000
H -0.1265580000 0.6223370000 1.5139900000
H -1.0684000000 0.8038820000 -1.3634200000
H -1.8288700000 1.6371400000 0.0206603000
H -1.6400000000 -1.1460000000 -0.1210540000
H 2.1944000000 0.3457060000 -0.0723600000
N 0.9546310000 1.6643200000 0.0098581800
O 0.0701184000 -1.7742800000 0.0564668000
O -2.1931800000 -0.3576290000 0.0563792000
O 1.9452400000 -0.6369700000 -0.2036640000
