16
0 1
C -0.6736300000 0.6579210000 -0.7030590000
C -1.5361900000 -0.3305980000 0.0674590000
C 0.7425170000 0.1425500000 -1.0578900000
C 1.7279000000 -0.2240460000 0.0787782000
H 0.2819550000 2.3619100000 -0.1788880000
H -1.2117600000 2.1249900000 0.7028500000
H -1.1289500000 0.7431470000 -1.7195200000
H 0.7330330000 -0.7342060000 -1.7643100000
H 1.2007200000 0.9497730000 -1.5732900000
H 1.7230100000 -0.2941760000 1.9625900000
H -2.2032400000 -2.0297600000 -0.3167540000
N -0.5921960000 1.8707400000 -0.0739525000
O -2.1356900000 -0.1074440000 1.0654300000
O 2.9094300000 -0.4774660000 -0.0152554000
O 1.1069800000 -0.1340310000 1.2043300000
O -1.4823500000 -1.4925400000 -0.6178470000
