15
0 1
H 1.8880200000 0.6621530000 -0.1385950000
H 1.4121700000 1.5695200000 -1.2564900000
H 1.2666900000 -1.3296600000 -0.0498990000
H 2.7995700000 -1.4788400000 0.4015450000
H -0.5744980000 -1.7410200000 1.5795500000
H -0.3970410000 -0.2834260000 0.8894480000
H -1.5312000000 1.3262400000 0.1452400000
H -0.0264017000 1.8004900000 0.3499960000
H -3.2133000000 -0.5701260000 -0.5480410000
H -1.7878400000 -0.9418960000 -0.2960610000
O 1.4351700000 1.5763500000 -0.2680020000
O 2.2479900000 -1.1810300000 -0.3840290000
O -0.5033150000 -1.2886500000 0.6853250000
O -0.7967430000 1.3550900000 0.7780540000
O -2.3626200000 -0.3384410000 -0.9459370000
