9
0 1
H 0.4042120000 -0.9044730000 -0.3311990000
H 1.5156700000 0.5111670000 1.2252000000
H 2.3604100000 0.9013870000 -0.1712990000
H -1.9433000000 -0.5358850000 0.9264710000
H -0.6452100000 1.2185600000 0.0000342515
N 1.4114800000 0.6184410000 0.1723430000
O 1.3789300000 -0.7264420000 -0.2417120000
O -1.3706900000 -0.6905210000 0.1548130000
O -1.4547500000 0.7269830000 -0.2700530000
