40
0 1
C 0.9369050000 1.6796200000 -0.3473360000
C -1.6852700000 -1.1269000000 1.8222700000
C -2.1423500000 -1.6613300000 0.4431550000
C -3.6224800000 0.1965100000 -0.5734230000
C -2.2551200000 -0.5975440000 -0.7537430000
C -1.2475400000 -2.7808600000 0.0333470000
C 3.4833900000 -1.3484100000 0.0584083000
C 2.4180100000 -0.4879300000 -0.6515960000
C 1.9754200000 0.6810500000 0.1959490000
C -0.5222710000 1.1162700000 -0.0677241000
C 4.7702400000 -0.6318240000 0.4807290000
H -0.5432090000 0.0618253000 -1.7994100000
H -2.5884000000 1.4097000000 0.4630370000
H -1.5282300000 -3.1620700000 -0.9957170000
H -1.3978900000 -3.5882300000 0.7155980000
H -0.2069820000 -2.3981200000 0.0088633100
H -1.7978100000 -1.9550400000 2.5227700000
H -2.1781200000 -0.2278510000 2.1553700000
H -0.6151380000 -0.8578280000 1.7539800000
H -3.1006300000 -2.0813400000 0.5626920000
H -2.4193500000 -1.1578900000 -1.6777800000
H 5.1047100000 0.5345100000 -1.2199600000
H 3.0985400000 -1.7591000000 1.0194600000
H 5.4559100000 -1.2845300000 1.0128200000
H 0.4021530000 2.6400200000 1.2253300000
H 0.5124990000 3.6166200000 -0.0083009100
H 6.4799800000 0.0271226000 -0.5255400000
H 2.8833300000 1.2286300000 0.4678030000
H 1.5928500000 0.3132570000 1.1910700000
H 1.1306900000 1.7991000000 -1.4264500000
H 2.9334300000 -0.0877859000 -1.5377300000
H 3.7569400000 -2.2263100000 -0.5658910000
H 4.6621000000 0.2394480000 1.1351600000
H 1.5785600000 -1.0625000000 -0.9485610000
N 1.0486100000 2.8533600000 0.4549400000
N 5.5375900000 -0.2411920000 -0.7280650000
N -1.0540400000 0.2712110000 -0.9620980000
O -4.6844400000 -0.2791530000 -0.9580260000
O -1.0957200000 1.4515900000 0.9464880000
O -3.5441800000 1.2729000000 0.1712530000
