9
0 1
C 0.1260910000 0.7581560000 -0.0036395000
H 1.8388300000 -0.5149980000 1.1173400000
H 2.1181700000 -0.5754280000 -0.4295670000
N 1.6480700000 -1.1318400000 0.1762480000
N 0.2940670000 -0.6195020000 -0.1944730000
N -0.7852860000 -1.2754300000 -0.2179890000
N -1.6117700000 -0.3687700000 0.1074640000
O -1.1305000000 0.8651150000 0.1800730000
O 0.9393580000 1.6736700000 -0.1506580000
