21
0 1
H -0.9035230000 -3.1586800000 0.6719220000
H 1.5295800000 -2.2163000000 -1.1590000000
H 0.3694610000 -1.7942500000 -0.1676230000
H -2.9112900000 0.0542218000 0.0927692000
H -3.6443800000 -1.3397300000 -0.3951340000
H -1.6731400000 -1.8847000000 -0.1051920000
H -1.6889200000 1.8970200000 0.0276270000
H 2.7886600000 0.9918250000 -0.3579550000
H -2.7929300000 1.8611400000 1.1171900000
H 2.7081000000 -1.0140700000 0.6103940000
H 2.7697700000 -0.1266820000 1.8902300000
H 0.0777053000 3.3818100000 -0.5932650000
H 0.6294880000 2.0431700000 -0.1387670000
H 1.7725500000 0.1412280000 -1.0474800000
O -0.9318920000 -2.5630000000 -0.1427480000
O 2.0254300000 1.1246600000 -0.9997090000
O -2.9060200000 -1.0058500000 0.2402970000
O 3.3016400000 -0.3788750000 1.1049900000
O 1.2441500000 -1.4804100000 -0.5374240000
O -2.6182300000 1.7115500000 0.1318010000
O 0.0060176200 2.7374300000 0.1470770000
