12
0 1
C 0.6984760000 0.3755650000 -0.0269085000
C -0.7114090000 -0.2910230000 -0.0238434000
H 2.9365700000 0.7219120000 0.2699870000
H 1.4707700000 -1.5349000000 0.1882940000
H -1.5122700000 1.5389100000 0.0651597000
H -3.0286600000 -0.7676080000 0.2128230000
N 1.6444200000 -0.5904650000 -0.0016171500
N -1.7045200000 0.5581410000 0.1357500000
O 2.9712600000 -0.2435350000 0.0394780000
O 0.9131980000 1.5591600000 -0.1015940000
O -0.7640640000 -1.5127300000 -0.0840325000
O -3.0414100000 0.1672000000 -0.0251862000
