23
0 1
C 1.8052300000 -0.8154380000 0.0159195000
C 0.6985870000 1.3021700000 0.0348388000
C -1.7441300000 1.5697700000 0.2246280000
C -2.2763700000 0.3732740000 -0.5742700000
C -1.7563100000 -0.9855150000 -0.1690290000
H -1.8799300000 -2.0903200000 1.3752000000
H -2.0537800000 0.4961130000 -1.6707900000
H -3.3885500000 0.3833020000 -0.4347120000
H -1.8385500000 1.3775700000 1.3232700000
H -0.3185550000 3.0461800000 -0.0628219000
H -2.4454300000 2.4366600000 -0.0026228600
H 2.6533000000 1.4950500000 0.2026980000
H 3.7202400000 -1.0281400000 0.0240076000
H 2.3879800000 -2.6697500000 -0.2526830000
H 0.7296230000 -2.4549700000 -0.3869820000
H 1.8909300000 3.0442200000 -0.2186210000
N 1.6003100000 -2.1570600000 0.0779817000
N 2.9916600000 -0.3363330000 0.0651680000
N 0.6136150000 -0.0237556000 0.0448265000
N 1.8141100000 2.0489500000 0.0978380000
N -0.4316540000 2.0331700000 -0.1760070000
O -2.1054800000 -1.1843700000 1.1097600000
O -1.1364700000 -1.7726600000 -0.8418990000
