18
0 1
H 2.4118800000 -0.3607980000 1.6125600000
H 0.3007480000 -2.0336900000 -0.6025890000
H 1.5151300000 -3.0684800000 -0.1362220000
H -2.0252100000 0.7968560000 0.2331320000
H -2.7116400000 0.2699400000 1.5982500000
H -1.8758800000 -1.2712300000 0.3220930000
H 2.0278600000 -0.9158360000 0.1860900000
H -1.9664900000 -2.3091200000 -0.8292970000
H 1.8441300000 2.6547800000 -0.7294840000
H 1.8250300000 1.2397000000 0.0183821000
H -0.1882190000 2.0445900000 -0.3830500000
H -1.5113100000 2.9516200000 -0.4615040000
O -2.6943900000 0.1181050000 0.6510660000
O 1.4290200000 2.1890200000 0.0278478000
O 1.3109800000 -2.1789100000 -0.6198790000
O -1.3909400000 -2.0545800000 -0.1019730000
O 2.5116700000 -0.1410320000 0.6529170000
O -1.1220900000 2.0676000000 -0.7135240000
