20
0 1
C 2.0708800000 -0.2484110000 -1.0578700000
C 1.0737000000 0.1721410000 -0.0072697300
C -0.7109140000 1.7002600000 -0.0747229000
C -1.2727700000 0.3435520000 -0.5572550000
C -0.2660950000 -0.6525380000 -0.0082254400
H -0.9952680000 -2.2512200000 -0.6958100000
H 0.0962307000 -0.9527140000 1.8779700000
H -2.5210000000 -0.1855230000 0.7431680000
H -1.2491000000 0.4287390000 -1.6489500000
H -0.9518160000 2.6020700000 -0.6361910000
H -0.9391070000 1.8258300000 1.0016200000
H 2.1619500000 0.8155580000 1.4665500000
H 2.3423100000 -1.3054600000 -0.9127460000
H 1.6081700000 -0.2416680000 -2.0541800000
H 2.9342000000 0.4162630000 -0.9519750000
O 1.6751200000 -0.0009331630 1.2707500000
O 0.7393630000 1.4909600000 -0.1924250000
O -2.5793400000 0.1032670000 -0.1793250000
O -0.6953360000 -0.8839250000 1.3200100000
O -0.1217250000 -1.8396100000 -0.7136770000
