8
0 1
C 0.0685256000 0.0963255000 0.0267900000
N -1.3880000000 -0.0059929700 -0.0235708000
N 0.8326930000 1.1247700000 0.2467270000
N 2.1290200000 0.5976530000 0.1144220000
N 2.0460300000 -0.6238910000 -0.1722160000
O -1.8905600000 -1.0496500000 0.2864430000
O -2.0461800000 1.0230600000 -0.2716610000
O 0.7180680000 -1.0016200000 -0.1795660000
