35
0 1
C 3.1344700000 -0.4430990000 0.8142540000
C -3.1872000000 -1.7445500000 0.0091802100
C -3.6745200000 -0.5056020000 -0.3168470000
C -2.7524800000 0.4385840000 -0.8089490000
C -1.0955000000 -1.2903800000 -1.0577400000
C -1.4587600000 0.1129950000 -1.1636000000
C -1.9349600000 -2.1512400000 -0.3258980000
C -0.8072520000 2.1476400000 0.7793470000
C 0.2374550000 1.7096800000 -0.2366330000
C 4.2848500000 -1.4060400000 0.2373260000
C 2.1955600000 0.2904530000 -0.1035070000
C -0.4749100000 1.1815100000 -1.5551200000
H -1.0852300000 1.9940400000 -2.0869400000
H -2.1598400000 3.4962700000 1.0714300000
H -4.5295800000 -2.2075400000 1.4315900000
H -4.7172900000 -0.2357070000 -0.1803490000
H -1.6881600000 -3.1544300000 0.0066928600
H -3.0493200000 1.5209900000 -0.7966950000
H -0.1554010000 -1.6514800000 -1.4428900000
H 0.3222070000 0.7078580000 -2.0941900000
H 4.1011500000 -0.4196150000 -1.4104200000
H 1.0100600000 0.5903570000 1.4203900000
H 3.9011000000 -2.3827700000 -0.0412039000
H 5.1086200000 -1.4917100000 0.9320350000
H 3.6834400000 0.2393460000 1.3779600000
H 1.6344000000 -1.9101300000 1.1840200000
H 2.4144700000 -1.3705100000 2.6039000000
H 0.8037340000 2.6347200000 -0.5759130000
N 2.1313400000 -1.1334000000 1.6706000000
N 1.0037600000 0.7019940000 0.4330440000
O -3.9916700000 -2.6135700000 0.6765870000
O 2.3901500000 0.5050500000 -1.2666000000
O 4.8788500000 -0.6661310000 -0.8719430000
O -0.9539740000 1.6514000000 1.8975300000
O -1.6159200000 3.2008000000 0.3449680000
