15
0 1
H -1.8132400000 0.8005300000 0.0061243200
H -2.9007600000 0.0259143000 -0.7984860000
H 0.2098640000 1.9447500000 -0.0077259700
H -0.8866310000 2.8584300000 0.6343410000
H 2.4628000000 1.6527400000 0.6535350000
H 1.9111200000 0.4121690000 -0.0497010000
H 0.9916800000 -1.6778200000 0.0142151000
H 2.3323900000 -1.7943400000 -0.7524670000
H -1.3047400000 -1.4395800000 0.0152546000
H -0.9750550000 -2.7274800000 0.8163480000
O -2.3321700000 -0.0421842000 -0.0146139000
O -0.7524010000 2.1782500000 -0.0414195000
O 1.8518600000 1.3957300000 -0.0434246000
O 1.9141700000 -1.3291400000 -0.0190669000
O -0.6848890000 -2.2095600000 0.0520952000
