31
0 1
C -2.0052200000 0.5708210000 0.2540930000
C -1.1775300000 -0.6171560000 -0.1122600000
C -3.5544600000 0.2002350000 0.5343300000
C -4.3251200000 -0.2033080000 -0.6900230000
C 1.0767300000 0.1072580000 0.8059170000
C 1.5554900000 1.3761400000 0.2179300000
C 2.1581900000 -0.8508500000 1.1367200000
C 3.0343100000 -1.0520400000 -0.1281680000
H -0.0019285800 1.5294400000 -0.7399250000
H 4.9409900000 -1.1243700000 -0.7337830000
H 4.6194900000 -0.0331588000 0.5733230000
H 2.8329000000 -0.5828930000 1.9477100000
H 1.7600500000 -1.9033800000 1.3035900000
H 0.5480180000 0.3809830000 1.6378700000
H 0.6041150000 -1.2455900000 -0.6248340000
H -4.4306600000 0.7417490000 -1.2231500000
H -5.3040400000 -0.5361120000 -0.3666820000
H -3.7527100000 -0.9257710000 -1.2339700000
H -3.1621800000 -1.6688200000 0.6834990000
H -3.9358300000 1.0929500000 1.0770100000
H -1.7192400000 1.0110600000 1.2034800000
H -2.1568100000 2.4163700000 -0.5684530000
H -1.9725300000 1.2604400000 -1.7162700000
N -1.6449800000 1.5656100000 -0.7889690000
N 0.1989770000 -0.4948550000 -0.1160380000
N 4.3129300000 -0.5632970000 -0.2196390000
O -1.5629100000 -1.5693400000 -0.7443210000
O -3.3073600000 -0.9479380000 1.3275400000
O 2.6496000000 1.8442400000 0.7040640000
O 2.5510300000 -1.3849200000 -1.2189300000
O 0.9805750000 1.9140000000 -0.7506130000
