28
0 1
C 4.2862200000 -0.5423820000 -0.0266362000
C 3.1635200000 -1.1018700000 -0.9313250000
C 1.8524300000 -1.0732600000 -0.2137890000
C 0.5134150000 0.3837100000 1.2321500000
C -1.4165900000 -1.2796700000 1.1778700000
C -2.7090600000 -1.5046500000 -0.7286150000
C -1.3218500000 0.5445100000 -0.4141160000
C -0.5178310000 2.7310300000 -0.2347260000
H -2.0750500000 0.0184986000 -2.1093000000
H -3.7330900000 -1.5680600000 -1.1295200000
H -2.1401800000 -2.3913700000 -1.0166200000
H -0.7701710000 -2.1732100000 0.9936840000
H -1.5427700000 -1.1628600000 2.2636200000
H 0.4407800000 1.4793900000 1.4073700000
H 0.6494950000 -0.2580320000 2.1156000000
H 1.8605300000 -1.7759200000 0.6210420000
H 3.2352200000 -2.1923200000 -1.1769100000
H 3.1323400000 -0.5351040000 -1.8867600000
H 5.2825600000 -0.5069320000 -0.5514370000
H 4.4124500000 -1.1872400000 0.8601710000
H 4.0858900000 0.4779710000 0.3206050000
H 1.0823600000 -1.4122800000 -0.9344600000
N -0.7742920000 -0.0456972000 0.6979150000
N -2.1721900000 -0.2518190000 -1.1273400000
N -1.0521300000 1.7387800000 -0.9647220000
N 0.0098355600 3.5510700000 0.4336170000
O 1.5693500000 0.2125650000 0.3081960000
O -2.7069000000 -1.5504900000 0.6645260000
