7
0 1
H -2.9327000000 -0.0243973000 -0.1423880000
H -1.3114900000 1.3156800000 -0.4825810000
H -1.1875900000 0.7761940000 1.0719500000
N 1.9599400000 -0.6111120000 0.1251860000
N 2.3050900000 0.3978160000 -0.1607840000
N -1.1033300000 0.4850820000 0.0996481000
O -2.0875100000 -0.4962470000 -0.1119160000
