14
0 1
C 2.7660900000 -0.1949540000 -0.0190832000
C 1.2809500000 -0.0181792000 -0.0091875700
C -0.6292700000 1.3251500000 0.0318597000
C -0.9110900000 -1.1782200000 0.0242509000
H 3.1360800000 0.4440470000 -0.7793910000
H 3.1034800000 -1.2493800000 -0.1472520000
H 3.1262500000 0.2078790000 0.9227960000
H -2.3728200000 0.2430950000 0.0789944000
H 0.9275170000 -2.1038300000 -0.0973195000
N 0.7870790000 1.1760600000 0.0430446000
N -1.3283600000 0.1152620000 0.0370721000
N 0.4980910000 -1.1642100000 0.0073428600
O -1.2020900000 2.3815200000 -0.0636517000
O -1.6302000000 -2.1358300000 -0.0309837000
