7
0 1
C -0.5816300000 -0.0380430000 0.1329910000
C 0.8037460000 -0.6138310000 0.1543120000
H 0.2615060000 1.5487200000 0.0829063000
H 0.6818570000 -1.7097000000 0.2508850000
O -0.6556880000 1.3092300000 0.0065455000
O -1.4023100000 -0.8584010000 -0.1300280000
O 1.7734900000 0.0582031000 -0.1337180000
