11
0 1
C 1.5946200000 0.2391880000 0.3762340000
H 2.6502100000 -1.3516000000 -0.0080547400
H 2.1782200000 0.3007720000 1.3054400000
H -1.7043800000 -0.6509790000 1.1609300000
H -3.2029200000 -0.2486290000 0.6203770000
H -0.9541880000 -0.1090580000 -0.9696780000
H -1.5466900000 1.1430500000 -0.0804862000
N -2.2970200000 -0.6360340000 0.3442850000
N -1.7945400000 0.3012240000 -0.5879920000
O 1.9266400000 -0.8143210000 -0.3645390000
O 0.7799840000 1.0424400000 0.0420414000
