25
0 1
C -2.3369100000 0.9192390000 -0.5251330000
C -2.9892000000 -0.4122600000 -0.1865910000
C -1.0080200000 -1.4086400000 0.8043130000
C 0.9462190000 -1.3241600000 -0.7153500000
C 2.1221200000 -0.7489520000 -1.2301800000
C 2.7219300000 0.3061220000 -0.3488460000
C 0.8638940000 0.3190390000 1.0839600000
H 4.6167900000 0.4589470000 -1.3959400000
H 4.3920000000 1.5276900000 0.0787128000
H 2.6204800000 -1.1663100000 -2.1262900000
H 0.5027160000 -2.1667400000 -1.2051400000
H -0.8080270000 -2.4937000000 1.1167200000
H -1.3915400000 -0.8991600000 1.6893600000
H -3.6163600000 -0.7488300000 -1.1058400000
H -3.5038900000 -0.3261150000 0.7495910000
H -1.5713800000 1.2048400000 0.2756830000
H -1.7390700000 0.8014030000 -1.4217700000
H -3.8237500000 2.1811500000 -0.0187845000
H -3.0288900000 2.5748300000 -1.4564900000
N -3.4258200000 1.8168800000 -0.9334430000
N 0.3073660000 -0.7620590000 0.3687730000
N 3.9189100000 0.8647840000 -0.6450630000
N 2.0558300000 0.7914840000 0.7010380000
O -2.0243100000 -1.4747000000 -0.1652390000
O 0.2039010000 0.7462040000 2.0512500000
