18
0 1
H -1.3836000000 -2.0336100000 1.6100400000
H -2.0819900000 0.8808530000 -0.2254540000
H -3.3307100000 -0.0391227000 -0.6292240000
H 1.8300800000 1.1710500000 0.4666280000
H 1.2234500000 1.9036500000 1.7224000000
H -0.0681942000 2.0457200000 -0.3587230000
H -1.9297800000 -1.2768600000 0.3767900000
H -1.2895700000 2.9653300000 -0.5250630000
H 1.1895500000 -2.9885200000 -0.7094860000
H 0.1601340000 -1.9282800000 -0.1761170000
H 2.1928900000 -0.9833650000 -0.1941880000
H 3.2419100000 -0.0203596000 -0.7571360000
O 1.3164900000 1.9852400000 0.7526400000
O 0.9798440000 -2.0397100000 -0.7623240000
O -2.7518000000 0.2241660000 0.0976589000
O -0.9214040000 2.1188000000 -0.8498450000
O -1.3485400000 -2.0482600000 0.6312850000
O 2.7561400000 -0.2022970000 0.0555272000
