21
0 1
H -1.3454300000 -2.7706800000 0.9281180000
H 1.1245100000 -2.2071000000 -1.4417500000
H 0.1781040000 -1.9733100000 -0.1823480000
H -2.5484400000 0.1540350000 0.2373750000
H -3.7075000000 -0.6695650000 -0.6091100000
H -2.0684400000 -1.9199800000 -0.1370320000
H -1.2303300000 2.1408200000 0.0190349000
H 2.7624000000 0.6964490000 -0.5544140000
H -2.3059500000 2.1904600000 1.1284300000
H 2.3111000000 -1.0828500000 0.7863750000
H 3.0451700000 -0.1445270000 1.8211500000
H 0.3039270000 3.5968000000 -0.4548590000
H 1.0556200000 2.2890700000 -0.1506770000
H 1.4583500000 -0.0808726000 -0.8643110000
O -1.1944000000 -2.4602200000 0.0393076000
O 1.8267200000 0.8503580000 -1.0313600000
O -3.0179400000 -0.7542510000 0.0759377000
O 3.2121300000 -0.5281960000 0.9311060000
O 1.1591600000 -1.8224600000 -0.4023600000
O -2.1434000000 1.8457100000 0.2226370000
O 0.2785890000 2.8417200000 0.0989867000
