15
0 1
H -1.4938600000 0.4067910000 -0.1678800000
H -2.3721800000 0.8916590000 -1.4346700000
H -0.6966120000 -0.8956300000 0.9447890000
H -1.7728400000 -0.4684180000 2.0338100000
H -0.8273280000 -1.3984900000 -0.9615450000
H 0.6390970000 -1.3650200000 -0.2364650000
H 1.7700700000 0.3292400000 0.0160178000
H 2.5444900000 -0.4266650000 -0.9797170000
H 0.3194940000 1.3331000000 0.8538830000
H 0.2354660000 1.8284600000 -0.6639740000
O -1.4920700000 0.5128260000 -1.1648800000
O -0.9965060000 -0.0335172000 1.4458300000
O -0.3035500000 -1.7905800000 -0.2625000000
O 2.2103800000 -0.5231060000 -0.0928288000
O 0.7885260000 1.8050000000 0.1488480000
