9
0 1
C 1.4001400000 -0.0799824000 0.0039985300
C -0.6733530000 0.7831070000 0.1403920000
H -2.0416400000 -0.5030230000 -0.7261250000
N -0.7854110000 -0.5724980000 0.5219800000
O -1.6995000000 -1.2705000000 -0.2442490000
O 0.5293920000 -1.0614200000 0.0787830000
O 2.5576800000 -0.0854556000 -0.2379260000
O 0.6834890000 1.1394700000 0.1159120000
O -1.6737100000 1.3143800000 -0.1867810000
