20
0 1
C 2.1359200000 -0.3062730000 -0.0004447640
C 0.3128510000 1.1681000000 0.0704452000
C -1.7629300000 0.2713400000 1.0792200000
C -2.0871500000 -0.5949860000 -0.1903040000
H -0.2628220000 -1.4502300000 -0.2184700000
H -1.9891300000 -0.3902380000 1.9830300000
H -2.4605800000 1.1241600000 1.0728300000
H -0.2874430000 2.0158400000 -1.7661400000
H 0.1975950000 0.0578288000 1.7319100000
H 1.9466200000 -2.2141900000 0.4814630000
H 3.7095500000 0.4675960000 -0.8333570000
H 3.9711700000 -1.2643300000 -0.4493000000
H -1.3984700000 2.1309000000 -0.4892420000
N 3.4854900000 -0.3372010000 -0.2756310000
N 1.4416500000 -1.3152200000 0.5123590000
N 1.5848600000 0.9113430000 -0.1977040000
N -0.5052230000 1.8527700000 -0.7655140000
N -0.3537420000 0.7327970000 1.1679800000
O -1.1078700000 -1.4100800000 -0.6840530000
O -3.2158600000 -0.6671480000 -0.6105290000
