18
0 1
C -2.3249400000 -1.5738700000 0.7752310000
C -0.4098640000 -0.2942030000 0.1624290000
C 2.0599500000 -0.3109170000 -0.1204640000
C -0.9505330000 1.1438400000 -0.1081300000
H -2.1596000000 0.2740070000 -1.0768400000
H 1.3801000000 1.3454200000 0.7807150000
H 3.0386600000 0.9414290000 1.2126400000
H 0.7359440000 -1.2461800000 -1.3205400000
H -3.0106900000 -2.3273500000 0.3548790000
H -2.8445500000 -0.6501720000 1.0870000000
H -1.7470500000 -1.9510700000 1.6203300000
H -0.2507290000 -0.3753680000 1.2419900000
N 0.7846180000 -0.5386280000 -0.5820450000
N 2.1289100000 0.6636520000 0.8587100000
O -1.9786200000 1.2130500000 -0.8988440000
O -1.3600500000 -1.2483600000 -0.2392030000
O 3.0265000000 -0.9180460000 -0.4932310000
O -0.4108760000 2.1189800000 0.3698760000
