7
0 1
C -1.5762800000 -0.2922250000 0.1183160000
H 0.0876253000 0.4210550000 0.3699380000
H -1.0698500000 -1.1984600000 0.4988180000
N 3.2626900000 -0.1786800000 -0.1659730000
N 2.2146000000 -0.0456639000 0.1130390000
O -0.7602240000 0.7556140000 0.0230963000
O -2.7274100000 -0.2429670000 -0.1741110000
