20
0 1
C -0.7761350000 0.2188670000 -0.0163795000
C -2.1966900000 -0.4107520000 -0.3495860000
C 0.0647710000 -0.5399360000 0.9524700000
C 1.3290200000 -1.1002200000 0.2754850000
C 2.5350400000 -0.0424203000 -0.1571260000
H -2.6563400000 1.3040400000 -0.0344076000
H 1.3074300000 1.6796900000 -0.1010980000
H 3.1451000000 1.8523900000 -0.0755605000
H 1.0156500000 -1.3932500000 -0.7399900000
H 1.8135200000 -2.0078300000 0.7282660000
H -0.4792560000 -1.4477700000 1.2491700000
H 0.0791995000 -0.0035479100 1.9724900000
H -0.1383110000 0.4594410000 -0.9364410000
H -0.7742220000 2.1744300000 -0.0744498000
H -0.8966030000 1.5668600000 1.4929200000
N -1.2047800000 1.4534600000 0.4953490000
N 2.2908100000 1.2823300000 -0.1586670000
O -2.5292100000 -1.5167500000 -0.1446790000
O 3.6356400000 -0.5711170000 -0.5059750000
O -3.0757300000 0.5768340000 -0.6077040000
