12
0 1
C 1.1585000000 -0.6908130000 0.0792774000
C -1.1370700000 -0.6893900000 -0.0757627000
H -1.5661400000 2.2230500000 -0.3632790000
H 1.6799000000 2.1374400000 0.4242320000
H 0.1143640000 -2.4483000000 0.1289950000
N -0.6579220000 0.6290480000 -0.2537240000
N 0.6691000000 0.6219590000 0.3194970000
N 0.0252646000 -1.4572900000 -0.0696890000
O -1.4717000000 1.5370300000 0.3039760000
O 1.3702700000 1.6373100000 -0.3375270000
O 2.3019200000 -1.0748800000 0.0670202000
O -2.2769700000 -1.1228400000 -0.0564224000
