9
0 1
C 1.1226700000 -0.1643940000 -0.0530195000
C -1.1111900000 -0.1933860000 0.0396276000
H 1.1567400000 1.8389000000 0.4477970000
H -1.2249900000 1.7396900000 -0.4635120000
N 0.6738990000 1.1602800000 -0.1430400000
N -0.7146740000 1.1409800000 0.1656440000
O 2.2395400000 -0.5986590000 -0.0125952000
O -2.2187100000 -0.6139910000 -0.0707463000
O 0.0147664000 -0.9799440000 0.0755710000
