34
0 1
C -2.0266600000 -0.1785180000 0.5261360000
C 3.5998700000 -1.7451200000 0.7496070000
C 2.0648800000 -0.8962470000 -0.6340430000
C 1.1121900000 0.1308730000 -1.2004900000
C 1.4726300000 2.3971700000 0.1157220000
C 2.0869900000 -2.2461100000 -0.8483650000
C -3.0609000000 -1.6164800000 -1.3905900000
C -3.1374900000 -1.1180600000 0.0394779000
C -1.9357600000 1.1176300000 -0.2324720000
C 0.6016240000 1.1159700000 -0.0592351000
H 0.5927400000 0.5758110000 0.8978930000
H 2.7639300000 1.1755800000 0.7713840000
H 3.3350800000 -3.7131200000 0.0509837000
H 4.2819600000 -1.8222200000 1.5666900000
H 1.4574800000 -2.8856100000 -1.4560400000
H 1.4684300000 0.6602600000 -2.0664200000
H 0.2206850000 -0.3249010000 -1.5321000000
H -0.7190130000 2.5214600000 -0.9425940000
H -3.8849500000 -2.2874200000 -1.5508300000
H -3.1966200000 -0.7748780000 -2.0461000000
H -3.0485700000 -1.9713900000 1.8171000000
H -4.1164100000 -0.6301530000 0.0941434000
H -1.1108900000 -0.7795390000 0.4482030000
H -3.0210100000 0.7672050000 2.0719200000
H -1.4917000000 0.2857490000 2.5155400000
H -2.0899700000 -2.1237900000 -1.5148900000
N -2.2917500000 0.0646523000 1.9336900000
N -0.7237830000 1.6638800000 -0.3902140000
N 3.0117700000 -0.5843910000 0.3567510000
N 3.0997900000 -2.7343100000 -0.0021159000
O 1.0729600000 3.4626600000 -0.2235230000
O -2.9330900000 1.7069700000 -0.6415630000
O -3.0403200000 -2.2587900000 0.8665040000
O 2.6782400000 2.1755900000 0.6478170000
