21
0 1
C -2.7921500000 0.8600170000 0.6706910000
C -2.3950800000 0.0821748000 -0.5216820000
C -1.0357200000 -1.9303400000 -0.0896621000
C 0.9251610000 -1.1989000000 0.0855038000
C 2.6836000000 0.1771400000 -0.0059059500
C 0.6726750000 1.2635400000 -0.0484368000
C 0.2055600000 0.0151296000 -0.1495530000
H -0.6371170000 2.6864700000 -0.7784580000
H 0.6848190000 3.1623600000 0.0490799000
H 3.7783600000 0.2681900000 0.0050903500
H -1.9213000000 -2.5740900000 -0.1385860000
H -3.0993700000 -0.7619950000 -0.5503300000
H -3.7410600000 1.3374000000 0.4449480000
H -2.9664700000 0.0422172000 1.4859000000
H -2.0502000000 1.5108400000 1.0304200000
H -2.3824800000 0.6477560000 -1.5012600000
N 2.0187400000 1.3488900000 -0.0783426000
N -1.0702300000 -0.5936580000 -0.3600260000
N 0.1407630000 -2.4019200000 0.1975680000
N 2.2049900000 -1.1080800000 0.2269580000
N -0.0441978000 2.4788000000 0.0577662000
