18
0 1
C -1.9031600000 -0.5412720000 0.0412826000
C -0.6240530000 1.3108000000 -0.0296920000
C 0.5119940000 0.4594940000 0.0734622000
C 2.7886100000 0.2095360000 -0.0390697000
C 2.5993600000 -1.1690900000 -0.0785968000
C 0.3446230000 -0.9565310000 0.0584201000
H 3.4817300000 -1.8039500000 -0.0557477000
H 3.7701500000 0.7290940000 -0.0144420000
H 0.5812120000 2.9097600000 0.1711320000
H -1.1606400000 3.2135600000 0.2765260000
H -3.2156200000 -2.0853800000 -0.1252090000
H -3.9737900000 -0.4838580000 -0.1898260000
N -3.1461200000 -1.0940600000 0.0362362000
N -1.8368600000 0.8170110000 -0.1269740000
N -0.3598500000 2.6638900000 -0.0343272000
N 1.7265900000 1.0456100000 0.0439372000
N 1.4157000000 -1.7777700000 0.0045400500
N -0.9119320000 -1.4199500000 0.0455485000
