36
0 1
C -2.2971600000 0.1479450000 0.9106710000
C 2.2837900000 -1.1684700000 -1.4077800000
C 1.7223200000 -2.3085200000 0.7469740000
C 2.3044800000 -1.0356700000 0.1293190000
C 2.1705300000 1.4817600000 0.0688343000
C 0.9069920000 -1.3499600000 -2.0702200000
C -3.4351400000 0.9776840000 -0.9870950000
C -3.1910000000 -0.5354310000 -1.2526600000
C -2.7878800000 -1.1181500000 0.1260780000
C -0.8492910000 -0.0549803000 1.4269300000
C 1.5170500000 0.2476080000 0.6215000000
H 1.7040500000 -2.3521200000 1.8372400000
H 1.8924300000 3.0736200000 -0.7747600000
H 0.2766600000 -2.1535100000 -1.6744600000
H 1.0711100000 -1.5442600000 -3.1382000000
H 0.4318280000 -0.3702660000 -2.0440500000
H 2.7646200000 -0.2715210000 -1.8210200000
H 2.8995300000 -2.0444500000 -1.6545500000
H 2.2860000000 -3.1760000000 0.4100380000
H 0.6771120000 -2.4682000000 0.4456700000
H 3.3674200000 -0.8480720000 0.4659750000
H -4.4144800000 1.1685800000 -0.5404500000
H -0.2961530000 0.9796930000 -0.1413630000
H -3.3833900000 1.6186200000 -1.8947200000
H -2.3674400000 -0.6426030000 -1.9668400000
H -4.0701000000 -1.0379900000 -1.6503500000
H -3.7045200000 -1.5073500000 0.5735160000
H -2.0789500000 -1.9465700000 0.1277640000
H -2.9573300000 0.3618890000 1.7365600000
H -2.4877400000 2.1519800000 0.4093520000
H 1.6817300000 0.2401080000 1.7060000000
N -2.3535200000 1.2718800000 -0.0573482000
N 0.0842515000 0.2378110000 0.4517130000
O 3.3339200000 1.7930700000 0.1171930000
O -0.5709840000 -0.5422210000 2.5065100000
O 1.3026000000 2.3113600000 -0.5045980000
