36
0 1
C 2.1214700000 -1.2592400000 0.5540350000
C -2.1926100000 -0.7945310000 -0.6411810000
C -1.6886700000 -1.5156700000 0.6534640000
C -0.3926120000 2.5000400000 0.0511304000
C -2.5395000000 -1.1806100000 1.8661900000
C 2.6091200000 1.2846500000 -0.0517852000
C 2.3926500000 0.2202930000 1.0596500000
C 0.7128600000 -1.6566900000 0.1822730000
C 1.5098100000 1.4475700000 -1.0832300000
H -2.3669600000 1.9029300000 -0.4658720000
H -0.9236000000 -1.9420000000 -1.4750600000
H -2.1521600000 -1.6393600000 2.7960300000
H -3.6012600000 -1.4293800000 1.7777600000
H -2.4529100000 -0.0999764000 2.0364200000
H -1.6745200000 -2.6016900000 0.4986570000
H -0.1594010000 -0.1162810000 1.0497400000
H -2.0707100000 3.4296800000 0.2010810000
H 1.0626200000 3.0370400000 1.1888300000
H 1.6570600000 2.3368700000 -1.7483800000
H 3.9958400000 -1.6532300000 -0.1174580000
H 1.6224800000 0.5604650000 -1.7481800000
H 3.5565400000 1.1309200000 -0.6096420000
H 2.7199300000 2.2875700000 0.4238890000
H 1.6303500000 0.5418740000 1.7866200000
H 3.3637600000 0.1721430000 1.5923400000
H 2.3805600000 -1.9262300000 1.4179700000
H 2.7542000000 -2.4937600000 -0.8994350000
H -0.4716520000 1.0299800000 -1.3274200000
N 3.0578500000 -1.6081700000 -0.5168450000
N 0.1313200000 1.4017600000 -0.5985300000
N 0.1088720000 3.2866000000 0.9168720000
N -1.7060200000 2.6920100000 -0.3825080000
N -0.2834760000 -1.1235400000 0.9490650000
O -2.9855700000 0.1191930000 -0.6292120000
O 0.4440680000 -2.5092500000 -0.6881300000
O -1.6116400000 -1.2778100000 -1.7448500000
