18
0 1
C -1.8366300000 -0.5822840000 -0.0132197000
C -0.6504880000 1.3133300000 -0.0180301000
C 0.4672400000 0.4493470000 -0.0235422000
C 2.7464100000 0.2636600000 -0.0017478600
C 2.6252100000 -1.1215700000 0.0214734000
C 0.3374720000 -0.9469560000 0.0234961000
H 3.4952400000 -1.7390400000 0.0789231000
H 3.7441300000 0.7048180000 -0.0137856000
H 0.5541120000 2.7377100000 0.0670718000
H -1.1418300000 3.2470600000 0.3264730000
H -3.1027800000 -2.0763300000 -0.1176070000
H -3.8769900000 -0.5163810000 -0.2382540000
N -3.1169100000 -1.1023100000 0.0634666000
N -1.8487200000 0.7765310000 -0.0200330000
N -0.4394720000 2.6214900000 -0.0243103000
N 1.7120400000 1.0562600000 -0.0160085000
N 1.4575400000 -1.7200800000 -0.0299681000
N -0.8797850000 -1.4334600000 0.0220820000
