12
0 1
H 2.6755300000 0.5542770000 -0.5802970000
H 1.2922500000 0.9868640000 0.1392410000
H 0.9769900000 -1.0989800000 -0.1368820000
H 0.4526000000 -2.2161300000 0.8006180000
H -1.2103600000 -0.9390710000 -0.1567160000
H -2.1893000000 -0.4165390000 0.8869100000
H -0.9754170000 1.0436900000 -0.0688644000
H -0.4476020000 2.3346900000 -0.6956450000
O 1.9866100000 0.2772660000 0.0822353000
O 0.2960730000 -1.8244400000 -0.1082140000
O -1.9809800000 -0.2938020000 -0.1146350000
O -0.3735340000 1.8098800000 0.1170690000
