7
0 1
C -1.0660700000 -0.3417250000 -0.0180136000
H -2.1372200000 -0.6267780000 0.1323830000
H 1.9339800000 -0.6651330000 0.0735492000
N -0.6488840000 0.9595370000 -0.0298801000
N 0.6091080000 0.9480780000 0.0463724000
N 1.0051800000 -0.2987290000 -0.0434775000
N -0.0225924000 -1.1314200000 0.0130065000
