23
0 1
C -2.8177100000 -0.0008908940 0.6450040000
C -2.4588600000 -1.1014100000 -0.3932420000
C 0.1057510000 -1.1472600000 -0.1316630000
C 2.3046400000 -1.6776400000 0.2084660000
C 2.7449400000 -0.3823780000 0.3271930000
C 1.8013900000 0.5586850000 0.0579784000
C 0.6037330000 2.3632200000 -0.2590330000
C 0.4826330000 0.2092890000 -0.1414310000
H 0.3184930000 3.3994500000 -0.4067670000
H 2.6549500000 2.4609400000 0.0632005000
H 3.7556400000 -0.0863548000 0.5216990000
H 2.9972600000 -2.5250500000 0.3062620000
H -1.0390000000 -2.6983000000 -0.3162550000
H -3.1092400000 -1.9132300000 -0.1904680000
H -2.0383700000 -0.1032760000 1.4752800000
H -3.8433000000 -0.1931610000 1.0311700000
H -1.8487200000 1.5067300000 0.1044810000
H -2.6703000000 -0.6678800000 -1.4019300000
N -0.2695790000 1.3720000000 -0.2706150000
N -1.1073300000 -1.6817200000 -0.3170930000
N 1.0627900000 -2.0474200000 -0.0339879000
N 1.8351000000 1.9551700000 -0.0582882000
O -2.8029100000 1.3380300000 0.2116980000
