12
0 1
C 1.1436300000 -0.6456530000 0.0973380000
C -1.1184300000 -0.7360050000 0.1262140000
H -2.1319000000 1.9019500000 0.3515830000
H 1.9634000000 1.9895800000 0.3820570000
H 0.0732012000 -2.4281500000 -0.2857020000
N -0.7162400000 0.5936500000 0.3841790000
N 0.6867060000 0.6513670000 0.4401930000
N 0.0429251000 -1.5228500000 0.1752100000
O -1.4428100000 1.6134000000 -0.2828100000
O 1.3578200000 1.6264100000 -0.2902440000
O 2.2202800000 -1.0247000000 -0.2630570000
O -2.1540000000 -1.1186800000 -0.2621780000
