14
0 1
C -2.3617900000 -0.5354800000 -0.0145604000
C -1.1328100000 0.1988260000 0.0196402000
C -0.0234749000 2.2252000000 -0.0182014000
C 1.2301700000 0.4064170000 0.0231435000
C 1.7813800000 -1.7226800000 -0.0200276000
C 0.1181250000 -0.4559280000 0.0124155000
H -0.1475220000 3.3131700000 -0.0219162000
H 3.2885600000 -0.1482040000 0.0654978000
H 2.4008100000 -2.6000900000 -0.0381804000
N -3.2837900000 -1.2223000000 0.0102634000
N -1.1808000000 1.5299300000 0.0076381100
N 1.2170100000 1.7425400000 -0.0225256000
N 2.3108800000 -0.4522060000 0.0247100000
N 0.4779280000 -1.7783800000 -0.0229230000
