15
0 1
C -0.2740590000 -0.0125048000 -0.2750370000
H 3.5850100000 -1.1037400000 0.9104950000
H 2.7854500000 -0.7805400000 -0.3793110000
H -2.4282400000 -1.8956700000 -0.6658570000
H -1.2386200000 -2.3807000000 0.3669620000
H -1.7107200000 0.0807083000 1.2604700000
H 0.9309410000 1.4256900000 -0.8884100000
H -1.6426700000 2.0875100000 -0.1699400000
H -0.5973640000 2.4003400000 1.0818500000
N -1.9513000000 -1.6619800000 0.2347400000
N -1.4722700000 -0.3219270000 0.3585120000
N 0.1123740000 1.2112300000 -0.3169350000
N -0.6639200000 2.3404100000 0.0924165000
O 3.2563500000 -0.3966260000 0.3697470000
O 0.4669540000 -0.9449560000 -0.6756430000
