36
0 1
C 0.9275340000 -1.2785900000 1.2551400000
C -2.4648200000 -1.6781700000 -0.9483640000
C -2.5115000000 0.8541330000 -0.8510930000
C -1.2598500000 2.5946100000 0.5194390000
C -1.1450000000 1.4151400000 -0.5118010000
C -2.5121300000 -0.3915440000 -1.7520300000
C 4.2237800000 -0.6540320000 -0.2216670000
C 2.8660100000 -0.5783310000 -0.3114100000
C 1.8869700000 -1.6407100000 0.1118820000
C -0.3084430000 -0.3519710000 0.8864850000
C 3.6219200000 1.3579200000 -0.8889130000
H -0.7381200000 1.8800200000 -1.4022600000
H -2.3628000000 3.9694700000 0.9970560000
H -3.4503100000 -2.7029400000 0.2748250000
H -1.6101500000 -0.3958830000 -2.3862700000
H -3.3833600000 -0.4613130000 -2.4200200000
H -3.1259800000 1.6668100000 -1.2694600000
H -3.0894800000 0.5418610000 0.0632546000
H 0.7957640000 0.7130000000 -0.4139950000
H 3.7192500000 2.3873700000 -1.2523800000
H 4.8318300000 -1.5384900000 -0.1003990000
H 1.3867000000 -1.9772000000 -0.7888270000
H 2.4695500000 -2.5184800000 0.3862440000
H 1.4893200000 -0.6884140000 1.9782100000
H -0.1968480000 -2.9551400000 1.1941000000
H -0.1279090000 -2.2314400000 2.6362700000
H 5.6497400000 0.8268320000 -0.7819720000
N 0.4479490000 -2.5119900000 1.8773600000
N 2.5063100000 0.6749600000 -0.7183390000
N 4.6849400000 0.5993960000 -0.5566950000
N -0.1190850000 0.4784730000 -0.1206350000
O -3.6073100000 -1.9648500000 -0.3237860000
O -1.3950400000 -0.4369040000 1.5032900000
O -0.3854770000 3.0232500000 1.2323400000
O -1.4956100000 -2.3945100000 -0.8476120000
O -2.4721700000 3.1364300000 0.4592500000
