12
0 1
H 0.2653460000 -2.3970500000 -0.7228410000
H -0.5512030000 -1.2946600000 -0.0072873400
H 1.4723600000 -0.6031100000 -0.0551867000
H 2.4486700000 0.2974960000 0.7255940000
H 0.5549490000 1.3724800000 0.0625251000
H -0.2964120000 2.4035200000 -0.7222260000
H -1.4534200000 0.6057250000 -0.0155533000
H -2.3302500000 -0.3913890000 0.8028750000
O 0.2838700000 -1.8391300000 0.0673494000
O 1.9195500000 0.2814730000 -0.0667618000
O -0.3086080000 1.8478400000 0.0644966000
O -1.9085700000 -0.2893080000 -0.0735716000
