31
0 1
C 1.6630000000 0.4582050000 1.0418800000
C 0.8589610000 -0.8507600000 0.7417260000
C 3.0872900000 0.1142000000 0.6027420000
C 3.3716500000 0.3460840000 -0.9253200000
C -1.6423100000 -0.4464130000 0.5859110000
C -2.1582500000 -1.5736600000 -0.1444620000
C -1.4685600000 0.7609310000 -0.3657420000
C -2.4602000000 1.8249800000 -0.3611230000
H -0.5707070000 -2.7411900000 0.0730985000
H -3.9389800000 0.4378170000 -0.4800170000
H -4.4933900000 2.0235800000 -0.0123058000
H -0.5530520000 1.1721100000 -0.0787666000
H -1.1288100000 0.6244480000 -1.4373800000
H -2.4467800000 -0.2168020000 1.3310200000
H -0.3104850000 -0.3009170000 2.2062900000
H 1.7801200000 -0.8567640000 -1.8102500000
H 3.8000600000 0.6983560000 1.1437000000
H 3.2074400000 -0.9952250000 0.7377490000
H 1.2040100000 1.3436200000 0.5236090000
H 1.5526500000 1.8438000000 2.4948900000
H 2.0064400000 0.2098650000 3.0571000000
H 2.8935300000 -0.0704007000 -2.7710300000
N 1.5153900000 0.8472640000 2.4127000000
N 2.4622000000 -0.0866883000 -1.8756800000
N -0.3695840000 -0.7955260000 1.2947400000
N -3.8041500000 1.4688900000 -0.5135790000
O -2.0745000000 2.9730000000 -0.3696890000
O 1.2060800000 -1.7341800000 -0.0090841200
O 4.3706300000 0.8801360000 -1.2707900000
O -3.3340400000 -1.6841900000 -0.4432010000
O -1.3104900000 -2.5611900000 -0.5645740000
