8
0 1
H 0.4184180000 0.9798020000 -0.7843400000
H 2.3920400000 -0.2486090000 -0.1751090000
H 1.4394900000 -1.0428800000 0.7834570000
H -1.2062100000 -0.4936390000 0.0894050000
H -2.2327300000 0.5392520000 0.4949280000
N 1.4718900000 -0.5640490000 -0.1144190000
O 0.7410140000 0.7437370000 0.1239580000
O -2.1302900000 -0.2169350000 -0.0748841000
