9
0 1
C 1.1340900000 -0.5481640000 0.1593040000
C 0.2073530000 1.6166400000 0.0236604000
H 2.6925700000 -0.6702920000 -1.0272200000
N 1.0687500000 0.7955460000 -0.1355390000
N -2.0580600000 -0.6804700000 -0.5294290000
N -2.9071100000 -1.1410200000 -0.0011861800
O 2.1174100000 -1.2276100000 -0.4901620000
O -0.5199070000 2.5199500000 0.0855078000
O 0.4692060000 -1.1122000000 0.9787180000
