11
0 1
C 1.7250400000 0.3435240000 0.0899816000
H -1.7814500000 -0.7425730000 0.9751780000
H -2.2622700000 -1.3074800000 -0.4609440000
H -2.3012400000 1.4217000000 0.2817650000
H -3.5850100000 0.4334730000 0.3284010000
H -0.0108797000 -0.2956420000 0.2259390000
H 1.2687000000 1.3253000000 0.3396380000
N -1.8454800000 -0.5115220000 -0.0106747000
N -2.7221100000 0.6142250000 -0.1871820000
O 0.8777310000 -0.6717480000 0.0053136200
O 2.9091500000 0.2198920000 -0.1109220000
