16
0 1
C -1.5812600000 -0.0730443000 -0.1166630000
C 1.7843300000 0.0304082000 0.0737558000
H -2.4971200000 -1.0843000000 1.5341400000
H -1.3061000000 -1.9431100000 0.4816790000
H -3.4875800000 0.5846520000 0.2653320000
H -2.7191200000 1.3088700000 -1.0593000000
H 0.8179510000 -1.1720100000 -1.0925300000
H 1.0008800000 1.8418700000 0.0735860000
H 2.4187700000 1.5202100000 1.0429800000
H 2.8814700000 -1.2980700000 -0.7380660000
N -1.7391000000 -1.0806600000 0.7721870000
N -2.6453700000 0.8056530000 -0.2131640000
N -0.4847160000 0.1716320000 -0.8200150000
N 0.6089690000 -0.5946400000 -0.3695810000
N 1.5132900000 1.2303600000 0.6939540000
N 2.9858500000 -0.4612510000 -0.0991481000
