23
0 1
C -1.6287100000 -0.7024240000 -0.1259310000
C -0.5186200000 -1.8954200000 -0.2376790000
C 0.9575350000 -1.3697200000 -0.0631569000
C 1.0705400000 -0.0529721000 0.8136920000
C 0.1439880000 1.0609000000 0.4666140000
C -0.9728570000 0.5868040000 -0.5512090000
H -1.4785100000 2.3068100000 -0.2958010000
H -0.4733700000 0.4136080000 -1.5001100000
H 1.3962300000 2.0058500000 -0.8334870000
H -0.4107340000 1.3189900000 1.3525700000
H 2.7270100000 0.6991470000 -0.0058850700
H 0.6762260000 -0.3882000000 1.8500500000
H 2.4110500000 -0.9906090000 -1.2658900000
H 1.5372400000 -2.2440100000 0.4687540000
H -0.7249330000 -2.5601100000 0.5899760000
H -0.5842810000 -2.5403000000 -1.1061700000
H -2.4978600000 -0.6971610000 -0.7936100000
H -2.3794900000 -1.5600600000 1.5721100000
O -2.0656900000 -0.6951030000 1.1777400000
O 1.4981900000 -1.2629300000 -1.3463100000
O 2.4120600000 0.4580480000 0.8774360000
O 0.7337310000 2.2455800000 -0.1333890000
O -1.8920300000 1.5635400000 -0.8062880000
