17
0 1
C 0.4868500000 0.4143620000 0.3236840000
C 1.8712600000 -0.0698148000 0.0012537600
C -0.5350520000 -0.6599750000 -0.1622840000
C -2.0352000000 -0.3196170000 -0.0836399000
H 3.0755800000 -1.4150300000 0.4749380000
H -1.4261900000 1.0418600000 1.2240600000
H -0.3143670000 -0.8873090000 -1.2434500000
H -0.4209450000 -1.6079700000 0.2817950000
H -3.1606200000 1.0421000000 1.0090100000
H 0.8582150000 2.4235100000 0.0640201000
H 0.1922190000 1.6855400000 -1.2517200000
H 0.5456660000 0.4832970000 1.4323100000
N 0.2125530000 1.7269500000 -0.2456760000
N -2.2552500000 0.6481970000 0.8041460000
O -2.8003400000 -1.0230800000 -0.7390280000
O 2.5710000000 0.1989520000 -0.9353640000
O 2.2571100000 -1.1235900000 0.8776000000
