18
0 1
C 3.3253700000 0.0326019000 0.0008946160
C 0.9007560000 -0.2639620000 -0.0459118000
C 0.5808240000 1.0483700000 0.0068253400
C -0.8515690000 1.4646800000 -0.0070590300
C -1.3944200000 -0.8332400000 -0.0491604000
H 0.1467290000 -2.0982700000 -0.5578340000
H -3.2121300000 -1.4096400000 0.2380770000
H -2.0621500000 -2.5357500000 0.6583130000
H 1.3468100000 1.7983700000 0.1609230000
H 2.1676000000 -1.5921600000 0.6876490000
H 3.1442100000 0.7729650000 -0.8063340000
H 4.2038600000 -0.5383320000 -0.3190760000
H 3.4564200000 0.5415480000 0.9816100000
N 2.1566400000 -0.8413960000 0.0120533000
N -1.8098700000 0.4171250000 -0.0117369000
N -2.3466000000 -1.8398700000 -0.0347149000
N -0.0959983000 -1.2482000000 -0.0567620000
O -1.2357900000 2.6196200000 0.0201578000
