11
0 1
C -1.2705100000 -0.3601820000 0.1182820000
C 0.0201256000 1.5476500000 -0.0318950000
H -3.0549800000 -0.1436840000 -0.8667710000
H -2.8605200000 -1.5934900000 0.1238040000
H 1.8226000000 2.0202300000 0.0323066000
N -2.4699500000 -0.7734250000 -0.3118940000
N -0.9118460000 0.9012560000 -0.4820640000
N 0.8931490000 2.3257200000 0.3146590000
N 2.2969600000 -1.7111500000 -0.2363410000
N 2.4886300000 -0.6242110000 -0.2421720000
O -0.5604120000 -1.0294000000 0.8621280000
