12
0 1
C 1.2409200000 -0.1375980000 0.2410010000
C -1.2917200000 -0.1109250000 -0.1744580000
H 2.6236700000 -0.9168610000 -0.8137720000
H 2.8259700000 0.8368530000 -0.6107990000
H -2.8730800000 -1.0879000000 0.2370150000
N 2.3488100000 -0.0733432000 -0.4305580000
N 0.6035570000 0.7141220000 0.9870360000
N 0.0400763000 1.7040700000 0.0519513000
N -0.8492850000 1.1819100000 -0.5623910000
N -2.5398000000 -0.1758700000 -0.0314382000
N -0.6016000000 -1.4227800000 0.0083478400
N 0.6737030000 -1.5482400000 0.0896661000
