18
0 1
H -0.7314380000 -1.9274700000 1.5861400000
H -2.2570500000 0.3564400000 -0.1248420000
H -3.3097700000 -0.7007280000 -0.7936510000
H 1.4142800000 1.6281800000 0.1400230000
H 0.8852950000 2.1198800000 1.5214100000
H -0.6182220000 2.0008600000 -0.1918470000
H -1.5320800000 -1.6360300000 0.2811500000
H -1.9277300000 2.7097500000 -0.6245300000
H 2.0819100000 -2.6150800000 -0.4177460000
H 0.7109320000 -1.9553400000 -0.2070320000
H 2.2540300000 -0.4098350000 -0.2508690000
H 3.3015500000 0.6713070000 -0.6417420000
O 0.7752240000 2.2557000000 0.5578450000
O 1.5466100000 -1.8696000000 -0.7243550000
O -2.7656100000 -0.5068630000 0.0200580000
O -1.5169700000 1.8256900000 -0.6301250000
O -0.7536260000 -2.1725300000 0.6586970000
O 2.6804100000 0.4373690000 0.0833219000
