13
0 1
C -1.2702600000 0.0707168000 0.0059476500
C -0.4238470000 1.3067800000 -0.0459770000
C 1.7090400000 -0.0867427000 -0.0162812000
C -0.4882260000 -1.2192300000 -0.0168631000
H -2.8984600000 -0.8313900000 0.1061190000
H 1.4683600000 1.8102200000 0.1249370000
H 1.2730800000 -2.1194700000 -0.0890113000
N -2.4944500000 0.1650800000 0.1082740000
N 0.9152090000 1.0304200000 -0.0600167000
N 0.8856030000 -1.2206000000 -0.0014825600
O -0.8351900000 2.4461400000 -0.0343093000
O 2.9417500000 -0.0619437000 0.0803156000
O -1.1250300000 -2.2733000000 -0.0498095000
