37
0 1
C -2.2312300000 0.0688500000 0.7924880000
C 4.3509200000 -1.1207400000 0.7454470000
C 3.1609200000 -0.3518280000 0.0889424000
C 2.0428900000 0.0476516000 1.1342600000
C 0.9395780000 2.1091000000 -0.0307110000
C 5.3179300000 -1.7278400000 -0.2319640000
C -4.4979200000 -0.5481090000 -0.1880550000
C -3.5454100000 -0.6631700000 0.9129890000
C -1.2453600000 -0.8586740000 0.0271802000
C 0.7311310000 0.6682370000 0.5491260000
H 2.6190500000 -0.9139370000 -0.7597830000
H -0.8108010000 1.8027900000 -0.8770140000
H 6.0245300000 -0.9044510000 -2.1229200000
H 6.8063100000 -0.2194410000 -1.0251400000
H 6.0865800000 -2.2211900000 0.3210140000
H 4.8057900000 -2.2935200000 -0.9911590000
H 4.9717400000 -0.4936050000 1.4707600000
H 3.8948600000 -1.9336800000 1.2900300000
H 3.4317800000 0.6323830000 -0.3695940000
H 2.0144700000 -0.6670070000 1.9856400000
H -2.3324800000 2.1670300000 0.7207780000
H 0.0833575000 0.9432010000 1.4067900000
H 0.4425470000 -0.6846020000 -1.0574900000
H -5.8580200000 -1.5293200000 -1.0836600000
H -3.9582700000 -0.0577642000 1.7760900000
H -3.4555700000 -1.6854200000 1.2663100000
H -1.7536600000 0.2442750000 1.7452500000
H -3.0021600000 1.3638300000 -0.5886850000
H 2.5060500000 0.9065220000 1.7232700000
N -2.2640200000 1.3260500000 0.1233930000
N -0.0245500000 -0.2594330000 -0.2361830000
N 5.8518300000 -0.6265320000 -1.1501800000
O -5.3047400000 -1.6258500000 -0.2301960000
O 1.8225200000 2.9247900000 0.2117280000
O -1.6181800000 -1.9658800000 -0.3984100000
O -4.5614700000 0.3132950000 -1.0653900000
O -0.0380674000 2.4439500000 -0.8662130000
