29
0 1
C 0.4439910000 1.3864500000 -0.2957170000
C -0.9618390000 1.7619000000 0.0122701000
C 1.2848400000 1.1948300000 0.9164620000
C 2.6633900000 0.4630810000 0.6121510000
C 2.5544900000 -0.9478950000 0.0642647000
C -1.5469800000 -0.6475890000 0.6481180000
C -1.8189900000 -1.3034000000 -0.6736750000
C -2.4649800000 -1.2461400000 1.7110500000
H 0.0083323100 -1.9297300000 -0.6798910000
H -3.4955800000 -0.9641570000 1.4732700000
H -2.2519000000 -0.7989760000 2.6875700000
H -2.4120100000 -2.3528900000 1.8104400000
H -0.5199050000 -0.8807000000 0.9203290000
H -2.7380600000 1.0798800000 0.7090760000
H 3.5464100000 -2.4541700000 -0.2177070000
H 3.1680800000 1.1055800000 -0.0880644000
H 3.2266000000 0.4457550000 1.5489200000
H 1.5561300000 2.1544800000 1.3900800000
H 0.6789090000 0.6709480000 1.6938700000
H 0.3290090000 0.4373310000 -0.8021840000
H 0.4299290000 2.4468300000 -2.0163000000
H 1.0000800000 3.2560800000 -0.7471240000
N 1.0715900000 2.3490500000 -1.2227700000
N -1.7468200000 0.7438770000 0.5689300000
O -1.4131700000 2.8867500000 -0.0944917000
O 1.5290800000 -1.5219500000 -0.0220995000
O 3.7477600000 -1.5309900000 -0.0881056000
O -2.8609400000 -1.1883200000 -1.3128600000
O -0.8431050000 -2.1247600000 -1.1168100000
