12
0 1
H -1.0078300000 0.7829120000 -0.2398440000
H -2.5246300000 0.6818990000 -0.5139320000
H 0.1752690000 -0.7409350000 -1.4884500000
H 0.9235510000 -1.1124700000 -0.2185720000
H 1.1348100000 0.7940230000 -0.2422870000
H 1.1244600000 2.2798200000 0.1665670000
H 0.1658700000 -0.0434124000 1.5857900000
H -0.8098570000 -0.9486770000 0.7766790000
O -1.6732500000 0.1420620000 -0.5681720000
O 1.0950500000 -0.7914650000 -1.1399900000
O 0.7055660000 1.4311500000 0.3601730000
O -0.0250670000 -0.9933900000 1.3697400000
