8
0 1
C 1.7200300000 0.0233471000 -0.0384863000
C 0.2948010000 0.0348430000 -0.0594293000
H -2.4444500000 -1.1499200000 0.1264920000
N 2.8605400000 -0.0339096000 0.0576916000
N -0.4938510000 1.1382000000 -0.0079564300
N -1.7079400000 0.7142100000 0.0256470000
N -1.6186700000 -0.6012980000 0.0109976000
N -0.4178790000 -1.1028000000 -0.0205223000
