14
0 1
C -1.3148800000 -0.0044896700 0.0224143000
C 0.5979980000 0.6979340000 0.0211920000
H -3.1957100000 -0.8627110000 0.0934679000
H -2.9559200000 0.9429770000 0.2371020000
H 2.3635300000 1.2305300000 0.7368520000
H 1.5459100000 2.3931600000 -0.0987000000
H 2.3650700000 -1.2024700000 -0.7066260000
H 2.0976000000 -1.5763000000 0.9086740000
N -2.6639400000 0.0241364000 -0.0191893000
N -0.5568580000 1.1789300000 0.0028881400
N 1.8416400000 1.4079700000 -0.1029290000
N 0.6034040000 -0.6789810000 -0.0048898500
N 1.7060300000 -1.5259300000 -0.0048382400
N -0.6330020000 -1.1326700000 -0.0756715000
