13
0 1
C 1.2618300000 0.1523070000 -0.0413188000
C 0.3173410000 1.3054800000 -0.0264027000
C -1.7101900000 -0.1469240000 -0.0098535100
C 0.5898530000 -1.1552200000 -0.0417837000
H 2.7663100000 -0.7727920000 0.1146990000
H -1.6460200000 1.9103600000 -0.0536636000
H -1.2139300000 -2.0934100000 0.1533460000
N 2.5068200000 0.1855100000 -0.0054956500
N -1.0473900000 1.0549700000 -0.0729929000
N -0.7897750000 -1.1962400000 0.0396375000
O 0.7510920000 2.4340500000 0.0732423000
O -2.9169400000 -0.2873810000 0.0211183000
O 1.2474900000 -2.1826300000 0.0023553800
