16
0 1
C -1.8577000000 -0.0026349400 -0.3123220000
C -0.0023590900 0.7874460000 0.9166680000
C 1.8596900000 0.0033579700 -0.3088830000
C 0.0015565800 -0.7853750000 0.9223360000
H -1.4546100000 2.0201200000 -0.1155830000
H 0.0129343000 1.2199100000 1.9172900000
H 1.4418700000 2.0292300000 -0.1202190000
H 1.4456500000 -2.0164200000 -0.1311520000
H 0.0027713400 -1.1993800000 1.9371900000
H -1.4145400000 -2.0181300000 -0.1548710000
N -1.2358700000 1.1007800000 0.2376370000
N 1.2119100000 1.1095200000 0.2109490000
N 1.2291500000 -1.1016500000 0.2334650000
N -1.2251400000 -1.1086700000 0.2349300000
O -2.8006400000 -0.0053353000 -1.0726600000
O 2.8129400000 -0.0011664500 -1.0596300000
