8
0 1
C 0.7911920000 0.0117236000 -0.0059543600
H 0.1674810000 -2.0211300000 0.0052379900
H 0.0796610000 2.0506000000 0.0390539000
N -0.0989038000 -1.0506500000 0.0389385000
N -1.3812000000 -0.6475000000 -0.0240188000
N -1.4059200000 0.6141730000 -0.0171326000
N -0.1175450000 1.0659300000 0.0244769000
O 2.0038400000 0.0033193900 -0.0205517000
