19
0 1
C 0.3610620000 -1.4825600000 -0.2794890000
C -0.2306520000 -0.2450110000 0.3734840000
C -1.6533000000 -0.3532910000 0.8729910000
C 0.7368260000 0.2765650000 1.4607300000
H 2.2081800000 -0.0146615000 0.3577810000
H 0.8114370000 -0.5663930000 2.1958300000
H 0.2900460000 1.0903700000 1.9951400000
H -1.8711000000 0.6276290000 1.1937700000
H -3.4195500000 -0.8237540000 0.0725673000
H 0.2182520000 -2.3379400000 0.4172660000
H -0.2351330000 -1.6474400000 -1.1720800000
H 1.6662400000 -0.7679780000 -1.4082200000
H -1.6938500000 -1.0988700000 1.7025200000
N -0.1943780000 0.8969350000 -0.6941580000
O 0.3987370000 0.6755740000 -1.7276200000
O 1.7490700000 -1.4039900000 -0.6551470000
O -2.5108200000 -0.6746020000 -0.2108070000
O 1.9651900000 0.6821130000 0.9967560000
O -0.5893670000 1.9816900000 -0.2859040000
