29
0 1
C 0.5502820000 1.4505000000 -0.3010210000
C -0.8558720000 1.8688700000 0.0057436200
C 1.4502800000 1.1635800000 0.9122450000
C 2.7037100000 0.3815300000 0.5027520000
C 2.5362600000 -1.0966400000 0.0205601000
C -1.4719100000 -0.5202120000 0.5694020000
C -2.0890400000 -1.3267000000 -0.5319690000
C -2.1247800000 -0.9976330000 1.8270700000
H -0.3313130000 -2.0524100000 -0.8597550000
H -3.2000200000 -0.6897780000 1.6769800000
H -1.6892700000 -0.6656150000 2.7943100000
H -2.0586600000 -2.1096500000 1.8354400000
H -0.4027740000 -0.6593760000 0.6540190000
H -2.6724700000 0.9846410000 0.2786500000
H 3.5849100000 -2.7676100000 -0.0322246000
H 3.1558900000 0.8340020000 -0.3828870000
H 3.3964800000 0.4157500000 1.4116400000
H 1.8968700000 2.0539200000 1.3857700000
H 0.9815870000 0.5809950000 1.7753400000
H 0.4564510000 0.5224850000 -0.7939760000
H 0.7189510000 2.4038400000 -2.1171400000
H 1.0636600000 3.4381000000 -0.8308040000
N 1.1448400000 2.4509400000 -1.2008900000
N -1.7087400000 0.8512740000 0.3819060000
O -1.3519900000 2.9843300000 -0.0690106000
O 1.5336800000 -1.5919100000 -0.4604350000
O 3.6793800000 -1.7844900000 0.1036780000
O -3.2804500000 -1.3299500000 -0.7676970000
O -1.2239600000 -2.1460400000 -1.1929300000
