18
0 1
H 1.2685700000 2.4011300000 1.5245600000
H 2.1666000000 -0.7481330000 -0.2737850000
H 3.2912200000 0.2554760000 -0.7383300000
H -1.7794600000 -1.3935500000 0.4645320000
H -0.7007220000 -1.6331000000 1.5781600000
H 0.2284240000 -1.9614800000 -0.2653660000
H 1.6324600000 1.3319200000 0.3337040000
H 1.3332500000 -3.0685900000 -0.4414900000
H -1.4264100000 2.9007700000 -0.6313740000
H -0.3007290000 2.0155200000 -0.1679310000
H -2.1755000000 0.7235510000 -0.1828490000
H -3.0013700000 -0.4022240000 -0.9468650000
O -1.1043300000 -2.0721000000 0.7044660000
O -1.1714100000 2.0012100000 -0.6224380000
O 2.7260300000 0.0446928000 0.0254338000
O 1.1482000000 -2.1219200000 -0.6730920000
O 1.1065900000 2.1598800000 0.5413150000
O -2.7721200000 -0.0644209000 -0.0073053300
