22
0 1
C 3.4565000000 -0.2018370000 -0.0569608000
C 2.0515500000 -0.8139440000 -0.1781290000
C 0.8470150000 1.3017700000 0.0681095000
C -0.5184590000 1.8824000000 0.3266590000
C -1.6026400000 1.3056900000 -0.5857600000
H -1.5589400000 1.8313000000 -1.5508900000
H -2.6406500000 1.2883500000 -0.1390350000
H -0.5773980000 3.0399500000 0.2542400000
H -0.8403300000 1.6603600000 1.3490600000
H 1.6998100000 1.8892600000 0.4706800000
H 0.9814590000 1.3841700000 -1.0233400000
H 1.0297400000 -0.1327390000 1.4823500000
H 2.1189900000 -1.8412500000 0.1190390000
H 1.7805700000 -0.9052190000 -1.2559600000
H 3.4561200000 0.8943280000 -0.2444530000
H 4.0983300000 -0.5840710000 -0.8244010000
H 3.8908200000 -0.3448740000 0.8935300000
N 1.0179500000 -0.0836944000 0.4883250000
N -1.4988000000 -0.9476490000 0.0672814000
O -1.4179000000 -0.0743375000 -0.9222680000
O -1.0630900000 -2.0342300000 -0.3078220000
O -1.9535500000 -0.6170000000 1.1221400000
