31
0 1
C 1.9665100000 -1.3599400000 0.2757910000
C 0.6939350000 -1.1023000000 -0.4765660000
C 3.1277900000 -0.5196990000 -0.1768320000
C 2.9582100000 0.9600260000 0.3042580000
C -1.1732800000 0.4542970000 -0.8699500000
C -1.6816800000 1.8237700000 -0.5299750000
C -2.3479000000 -0.5256150000 -0.8684400000
C -2.8766700000 -0.9752600000 0.5234630000
H -1.5779800000 3.1777700000 0.7684510000
H -1.8452100000 0.3992140000 1.6888100000
H -2.9809700000 -0.6925670000 2.5246800000
H -2.0874600000 -1.4588200000 -1.3356400000
H -3.2118900000 -0.0890004000 -1.4032000000
H -0.8115550000 0.6083060000 -1.9406500000
H 0.1535220000 0.5168640000 0.7787890000
H 4.9384200000 1.2693400000 -0.2511300000
H 4.0615800000 -0.8539200000 0.3078940000
H 3.3423800000 -0.5845620000 -1.2549000000
H 1.7612800000 -1.2394000000 1.3337700000
H 1.4384200000 -3.3083700000 0.6920880000
H 2.1218000000 -3.1116900000 -0.7245720000
H 4.1528200000 2.6376800000 0.4081560000
N 2.2162200000 -2.7973600000 0.2310630000
N 4.0817100000 1.7002300000 0.0655704000
N -0.1325750000 -0.0910798000 -0.0133435000
N -2.6796800000 -0.2230900000 1.6460100000
O -3.5595500000 -1.9751600000 0.6116830000
O 0.4084580000 -1.7237400000 -1.5037000000
O 2.0137900000 1.4211500000 0.9523390000
O -2.4320500000 2.4820000000 -1.2298200000
O -1.1626900000 2.3053300000 0.6459850000
