26
0 1
C -1.6446500000 1.3298000000 0.1898810000
C -0.2505800000 0.9798900000 0.7381660000
C -2.2256300000 0.3378030000 -0.8554440000
C -2.5855700000 -0.9776730000 -0.2350260000
C -1.3743500000 -1.6985600000 0.2168280000
C 2.1357400000 1.1013400000 0.0145427000
C 2.7843300000 -0.2175860000 -0.2498720000
H 1.0715500000 -0.9019860000 -0.6418940000
H 2.6489400000 1.6729000000 -0.7359800000
H 2.3769700000 1.4728900000 1.0203500000
H 0.4674090000 1.4854900000 -1.1423600000
H 0.0647748000 -2.5028600000 -0.4931390000
H -3.1827600000 -0.8305120000 0.6950780000
H -3.1589200000 -1.4936000000 -1.0153800000
H -3.1167400000 0.8833570000 -1.3028000000
H -1.5392600000 0.2810340000 -1.7265000000
H -2.2879200000 1.3408700000 1.1429900000
H -1.1157700000 3.3541900000 -0.0122700000
H -2.3986600000 2.8515100000 -0.9367240000
N -1.4901400000 2.5434700000 -0.6094450000
N 0.7116060000 1.0377100000 -0.2674640000
O 0.1007550000 0.7439120000 1.8415600000
O -1.0137100000 -1.9811200000 1.3012700000
O -0.7017640000 -2.0612800000 -0.8817670000
O 3.9895600000 -0.1952930000 -0.1629860000
O 1.9482000000 -1.2326800000 -0.5515050000
