15
0 1
H -1.8067000000 0.1356200000 -0.4712930000
H -2.1413300000 0.4152800000 -1.9712100000
H -0.7553550000 -0.8757580000 0.9597600000
H -1.6689100000 -0.4854820000 2.1856700000
H -0.2394280000 -1.3713900000 -0.9451510000
H 1.0601500000 -1.2904100000 -0.1105270000
H 1.7169500000 0.6342550000 0.1413930000
H 2.8502000000 0.1223020000 -0.8183920000
H -0.1556840000 1.2321100000 0.9249050000
H -0.1079540000 1.5424600000 -0.5652740000
O -1.4098300000 0.2523120000 -1.3494700000
O -1.3426500000 -0.1490260000 1.3270300000
O 0.1619250000 -1.7188900000 -0.1364710000
O 2.3601500000 -0.1188670000 -0.0111367000
O 0.3864140000 1.7270900000 0.2538130000
