24
0 1
C -2.5060600000 -1.1284100000 0.3534280000
C 2.2029600000 0.4472030000 0.6528160000
C 2.4799500000 -0.6270990000 -0.4257300000
C 0.9144820000 0.0073651500 1.3330800000
C -0.3854980000 -0.0099031300 0.6482360000
C -0.8743390000 1.0820100000 -0.0370863000
C -1.2417800000 -1.1395200000 0.8133090000
C -2.2077100000 1.1489300000 -0.3918290000
C -2.9901900000 0.0405198000 -0.2497570000
H 1.1663200000 -0.9454740000 1.7485200000
H 0.7666660000 0.6270800000 2.2560500000
H 3.0452200000 0.3103780000 1.3153800000
H 2.6527200000 2.3525500000 0.9520650000
H 3.4374600000 -0.9202470000 -1.9783600000
H -2.6370700000 2.0109200000 -0.9434930000
H -4.3176300000 0.9411820000 -1.2527600000
H -0.2223440000 1.9509100000 -0.1587990000
H -3.0150500000 -2.0971900000 0.4971820000
H 2.7065800000 2.0714300000 -0.6597130000
H -0.9070620000 -2.0282900000 1.3069700000
N 2.1939600000 1.7816700000 0.1842640000
O 1.9413700000 -1.6821000000 -0.4888420000
O 3.4982600000 -0.2984610000 -1.2816700000
O -4.2376800000 0.0216257000 -0.7984490000
