24
0 1
C -2.3773200000 -0.7899050000 0.1415190000
C -1.2414600000 1.2292000000 0.0809607000
C 1.2263300000 1.0432000000 0.7703430000
C 1.9417300000 0.1801370000 -0.3254330000
C 3.3798500000 0.0236864000 0.2027460000
H 3.4698700000 -1.7794700000 -0.4446970000
H 4.0282900000 0.9399050000 0.0813179000
H 3.2725300000 -0.2159280000 1.3009200000
H 0.4754840000 -1.0277000000 -0.7068110000
H 2.0654400000 0.7151090000 -1.3021200000
H 1.9074700000 1.8101500000 1.1347100000
H 0.1467250000 2.7007300000 0.0578818000
H -2.8936800000 -2.7854700000 0.1512990000
H -1.7590000000 -2.3084600000 1.4050100000
H -4.1636200000 -0.9260440000 -0.9937740000
H -3.0681100000 0.3603370000 -1.2292000000
H 0.9490100000 0.3395280000 1.5986800000
N -3.3196300000 -0.4761690000 -0.7234990000
N -2.4961400000 -2.0293200000 0.7346970000
N -1.3105000000 -0.0631134000 0.4606840000
N 0.0675539000 1.7228100000 0.2839120000
O 1.3797300000 -1.1015200000 -0.4860560000
O -2.0718500000 1.8787100000 -0.5052410000
O 4.1178400000 -1.0296900000 -0.4542750000
