38
0 1
C 0.8355910000 -1.0511300000 0.5158460000
C -1.8811800000 1.4495400000 -0.6818590000
C -3.5037200000 -0.2439310000 0.3588810000
C -1.9852500000 0.1079620000 0.0937903000
C 3.7786200000 1.3667900000 0.7135610000
C -2.3647000000 2.6591700000 0.0876368000
C 3.0062800000 -0.5228050000 -0.8993560000
C 2.2940900000 -1.3697900000 0.1940870000
C -0.1268390000 -1.4377000000 -0.6698550000
C 3.0363300000 0.9846790000 -0.5843580000
H 5.1020100000 -0.1404880000 0.8145180000
H -3.0697400000 0.3224610000 2.0796600000
H -1.8400600000 2.7356100000 1.0452600000
H -2.1357300000 3.5551000000 -0.4846850000
H -3.4553000000 2.6848600000 0.2761610000
H -0.2617450000 1.1397300000 -1.7717600000
H -2.5115600000 1.2941000000 -1.5621700000
H -1.3676900000 0.3453070000 0.9604200000
H -2.0387700000 -1.3750000000 -1.3027000000
H 5.6327100000 1.1134700000 -0.0816949000
H 2.0093200000 1.3516500000 -0.5925460000
H 3.7927800000 2.4575100000 0.7944550000
H 0.8827350000 -1.3914100000 2.5716000000
H 3.3460200000 1.0064100000 1.6630800000
H 0.7932940000 0.0406898000 0.6371640000
H 2.7362500000 -1.2225200000 1.1956400000
H -0.5515460000 -1.7269400000 1.9219500000
H 4.0347200000 -0.8771960000 -0.9574760000
H 2.6046700000 -0.6791830000 -1.8915700000
H 3.5888200000 1.4979300000 -1.3691800000
H 2.3470500000 -2.4426100000 -0.0382091000
N 0.4410040000 -1.7788000000 1.7455600000
N 5.1449300000 0.8875250000 0.7779900000
N -1.4140200000 -0.9519440000 -0.5912540000
O -0.5244310000 1.7238600000 -1.0429400000
O 0.2287840000 -2.1493900000 -1.5924800000
O -4.2229900000 -0.6994240000 -0.5050630000
O -3.9034800000 0.0695057000 1.6149500000
