30
0 1
C -0.2032440000 2.5617000000 0.5017100000
C 0.5357190000 1.3784200000 0.0297412000
C -1.5990400000 2.2556100000 1.0628500000
C 1.1894600000 -0.9231550000 0.4939930000
C 2.7204400000 -1.0429400000 0.2755460000
C 0.3628100000 -1.5292400000 -0.6467740000
C -1.0891600000 -1.3969000000 -0.4317000000
C -1.8643300000 -2.4733000000 -0.1398100000
C -3.1175200000 -0.7240140000 -0.1178760000
H 2.4803100000 0.6048040000 -0.9785130000
H -3.8582700000 -2.5304000000 0.4066150000
H -3.9171900000 0.0149216000 -0.1227480000
H -1.3678100000 -3.4841100000 -0.2522170000
H 0.7638120000 -1.0186100000 -1.4381700000
H 0.6277670000 -2.5604000000 -0.8822520000
H 1.0667000000 -1.5987300000 1.4002200000
H -1.9708300000 1.6639300000 1.9180900000
H -2.1563700000 1.7934100000 0.2302570000
H -2.2528300000 3.1179800000 1.1117800000
H 0.4532810000 3.0295500000 1.2081200000
H -0.8548930000 2.9230600000 -1.2989300000
H 0.5690440000 3.5927000000 -1.0330700000
H 0.4973530000 0.5161210000 1.8312900000
N -0.3465580000 3.5266100000 -0.5754760000
N 0.8644390000 0.3704090000 0.8935560000
N -1.8476100000 -0.2874600000 -0.5169000000
N -3.0844200000 -2.0311100000 0.1785410000
O 3.2903200000 -2.0676100000 0.5553170000
O 0.9269430000 1.2813100000 -1.1851600000
O 3.1837600000 0.0674965000 -0.3857290000
