18
0 1
C -1.6182900000 -2.1612600000 0.0418422000
C 0.3640220000 -0.7969340000 -0.0526156000
C 2.4828700000 -1.2812600000 -0.0201988000
C 1.0408000000 0.4001980000 -0.0320241000
C 0.3458520000 1.6587600000 0.0235183000
C -1.7287700000 0.3034230000 -0.0268462000
H -1.5840300000 2.3684000000 -0.0439523000
H 3.0995200000 0.7543990000 -0.1471250000
H 3.4662800000 -1.7780900000 -0.0724273000
H -2.6829500000 -1.9584200000 0.1555570000
H -1.3924500000 -2.7716300000 0.9348380000
H -1.4084300000 -2.7555900000 -0.8827350000
N -1.0046300000 -0.8697930000 0.0643082000
N 1.2933000000 -1.8295900000 0.0427068000
N 2.3674900000 0.0992553000 -0.0415873000
N -1.0120800000 1.5243900000 0.0412676000
O 0.9171940000 2.7413200000 0.0641394000
O -2.9578700000 0.3753790000 -0.1007740000
