8
0 1
C 1.2943400000 0.8783330000 -0.0284025000
C 1.0603700000 -1.4434600000 0.0683981000
H 1.7126100000 -2.3396700000 0.2004130000
N 1.8087100000 -0.2299440000 -0.0498754000
N -2.9567300000 -0.0702589000 0.0029074500
N -2.0859700000 0.6086250000 0.0096135200
O 0.9670890000 1.9746600000 0.0291810000
O -0.1174690000 -1.5282300000 -0.0515442000
