15
0 1
H 0.2280030000 -1.3240200000 0.2796140000
H -0.5485470000 -1.9143700000 1.5756300000
H 1.9256400000 -0.3378920000 -0.3024130000
H 1.7556500000 -1.5713200000 -1.2623200000
H 2.3231800000 1.6761900000 0.4323080000
H 0.8753300000 1.4506300000 -0.1251920000
H -1.3935500000 1.2615800000 0.0344031000
H -0.6250110000 0.6331180000 1.1485100000
H -3.2802400000 -0.2081520000 -0.7354890000
H -1.8390100000 -0.6883070000 -0.4026790000
O -0.6057580000 -1.2499400000 0.8335710000
O 1.8297100000 -1.3517100000 -0.3092460000
O 1.8376000000 1.2747700000 -0.3365580000
O -0.6567720000 1.4796100000 0.6585980000
O -2.3324600000 -0.0249198000 -0.9266630000
