20
0 1
C -2.3713400000 -0.3493940000 -0.1880290000
C -0.8355550000 1.4782300000 0.6105920000
C 0.6317940000 1.6924900000 0.3173150000
C 1.4078400000 0.4809860000 0.0543734000
H 3.0858900000 1.0805100000 -1.0414900000
H 1.1124100000 2.1877400000 1.1843400000
H 0.7126820000 2.3475500000 -0.5523070000
H -1.0026700000 0.9535000000 1.5556800000
H -1.2969300000 2.4706400000 0.6792980000
H -3.7671300000 0.0421956000 -1.4606500000
H -0.8970940000 -1.1745600000 0.9453440000
H -2.4129000000 -2.0581900000 0.8085290000
H -1.7729000000 1.2491500000 -1.2636700000
N 3.0198600000 -0.8597440000 -0.4540510000
N -1.9124700000 -1.1906300000 0.8047770000
N -3.4836900000 -0.6304350000 -0.7619230000
N -1.4876900000 0.7071400000 -0.4438870000
N 1.0449900000 -0.7512560000 0.4425580000
N 2.1162000000 -1.5202300000 0.1393500000
N 2.5945500000 0.4005240000 -0.5297630000
