10
0 1
C -2.0258100000 -0.1841540000 0.0736940000
H 3.3855100000 0.2248410000 1.0212000000
H 0.9284620000 -0.8978910000 -0.3133340000
H -1.5917900000 1.7032800000 0.2262900000
H -0.9554300000 -0.3421010000 0.1643110000
O 3.2071800000 -0.3595560000 0.2746450000
O 2.2502600000 0.3472270000 -0.4655070000
O 1.0291800000 0.0145957000 -0.0257492000
O -2.3565300000 1.1055900000 0.0885055000
O -2.8315800000 -1.0557600000 -0.0644738000
