18
0 1
C -1.8189900000 1.6918900000 0.3587050000
C 2.9122600000 -0.9019750000 0.5789950000
C 3.4086200000 0.2713020000 0.0799810000
C 2.6145900000 1.1646900000 -0.5042520000
C 1.6038000000 -1.2092800000 0.3873180000
C 0.7312380000 -0.2910980000 -0.1967120000
C -0.6827780000 -0.6245190000 -0.2264820000
C -1.7374100000 0.3013590000 0.0803456000
C 1.2600400000 0.8971960000 -0.6466210000
H 0.5800780000 1.6121900000 -1.0848900000
H 2.9803700000 2.1724300000 -0.9043570000
H 4.4828200000 0.3922710000 0.3246120000
H 3.4429500000 -1.6758800000 1.2902500000
H 1.0845800000 -2.0897900000 0.7843050000
N -1.1790200000 -1.8362200000 -0.3066550000
N -1.9426900000 2.8476200000 0.4639790000
N -2.8834700000 -0.3269580000 0.0491028000
O -2.5353500000 -1.6249600000 -0.1653210000
