15
0 1
H -1.0558700000 -1.2154300000 -0.1357720000
H -0.6559530000 -2.6276400000 0.0841690000
H -1.7662800000 0.7585260000 -0.4632900000
H -2.7210300000 0.2555760000 0.5423190000
H -0.0818779000 2.7191000000 -0.0343704000
H 0.1540770000 1.1836300000 0.6420310000
H 1.6650900000 0.0398667000 0.5827360000
H 0.6299990000 -0.6650470000 1.5756000000
H 1.2795400000 0.5497930000 -1.2718800000
H 1.2357100000 -0.8969600000 -0.9785170000
O -0.2929160000 -1.7587800000 0.1243830000
O -2.3605600000 -0.0070219300 -0.3084560000
O -0.2350800000 1.7557000000 -0.1285870000
O 1.1697700000 0.1904810000 1.4228100000
O 1.8833500000 -0.1930550000 -1.1780300000
