24
0 1
C 3.6908100000 -1.2889700000 0.1973650000
C 1.1853000000 -1.0623900000 -0.0656210000
C -1.1942500000 -0.8632530000 -0.0812229000
C -2.3680600000 -1.6494000000 0.0211722000
C -3.5657900000 -0.9967810000 0.1048120000
C -3.6038700000 0.4116190000 0.0764510000
C -2.4687700000 1.1230000000 -0.0904671000
C -1.2221400000 0.4951980000 -0.1390060000
C 0.5855910000 2.4923200000 0.0495353000
C 1.1876800000 0.4186740000 -0.1218410000
H -0.0495859000 3.3529300000 0.2881210000
H -2.4344000000 2.2133500000 -0.0237580000
H -4.5708500000 0.8976060000 0.3193420000
H -4.4605900000 -1.5042700000 0.2907370000
H 3.7206900000 -0.7809300000 1.1678800000
H 2.1264500000 -2.7584700000 -0.3061450000
H 4.3567100000 -2.2012500000 0.2537880000
H 4.1497400000 -0.6217420000 -0.5022120000
H -2.2017600000 -2.7052800000 0.0705847000
N 1.8596500000 2.4884900000 0.1292180000
N 2.3563400000 -1.7833500000 -0.1328280000
N 0.0363642000 -1.6461200000 0.0399706000
N 0.0572265000 1.2136300000 -0.1383150000
N 2.2625100000 1.1027800000 -0.0788179000
