15
0 1
C -2.0453500000 -0.0816269000 -0.0111016000
C -1.0772100000 0.6427780000 -0.9219940000
C 1.3180500000 0.7116170000 0.0609100000
C 1.3430400000 -0.7889950000 0.0894459000
H -1.4589400000 1.1450900000 1.1800400000
H -0.7078970000 -0.1849630000 -1.6082100000
H -1.5943800000 1.1655300000 -1.6722900000
H 0.1439410000 2.3121300000 -0.4606030000
H 3.0110400000 -0.6100560000 -0.1512750000
N 0.0722099000 1.2993200000 -0.2005630000
O -2.0333700000 0.3743520000 1.2492800000
O -2.8057300000 -0.8766620000 -0.3840460000
O 2.4055100000 1.3112000000 0.1400780000
O 2.4625900000 -1.3679300000 -0.0003272280
O 0.3297070000 -1.4191700000 0.0966024000
