8
0 1
C -1.1692500000 0.5147450000 -0.0181145000
C 1.0276700000 0.7395630000 0.0256700000
H -2.2095400000 0.8831160000 0.0293641000
H 1.9091000000 1.3684000000 0.0070184300
N -0.1432750000 1.3498700000 -0.0209614000
N 1.2105700000 -0.5855800000 0.0087269200
N 0.1343730000 -1.3395100000 -0.0395960000
N -1.0374000000 -0.8215450000 0.0401569000
