24
0 1
C 1.3455000000 0.7407640000 0.0024479700
C -1.1035900000 0.6688700000 0.0132082000
C -2.3366200000 1.3181200000 -0.0487871000
C -3.5212300000 0.6262760000 -0.0642291000
C -3.4570900000 -0.7661530000 0.0278107000
C -2.2572200000 -1.4426400000 0.0039664500
C -1.0507600000 -0.7061610000 0.0486029000
C 1.3728300000 -0.7305730000 -0.0542282000
H 3.4353300000 -2.9759800000 -0.1718280000
H 2.2123600000 -2.9795900000 0.9322240000
H 0.2365660000 -2.3625700000 -0.1976410000
H -2.2502500000 -2.5416200000 0.0973304000
H -4.3686700000 -1.3743400000 0.0773054000
H -2.2993200000 2.4225300000 -0.1162270000
H 0.1983240000 2.3430200000 0.1189710000
H 2.9414100000 3.3135500000 0.3853440000
H 2.0053200000 3.1388900000 -0.9265680000
H -4.5248500000 1.0760700000 0.0016300700
N 2.5057000000 -1.3172100000 -0.1720500000
N 2.0819600000 2.8678800000 0.0851709000
N 2.4393400000 1.4427700000 0.1026220000
N 0.1193080000 1.3354200000 -0.0151162000
N 0.1626850000 -1.3706900000 0.0946555000
N 2.4714100000 -2.7168900000 -0.0628955000
