14
0 1
C -2.7425400000 1.1333200000 0.0285138000
C -2.7492100000 -0.3871910000 -0.0956297000
H 3.7073200000 -0.4963170000 -0.5684030000
H 0.9981280000 0.5087250000 -0.5708680000
H -3.7866400000 1.4731500000 -0.0109888000
H -2.1944800000 1.6131600000 -0.7976080000
H -2.2760500000 1.4614800000 0.9488450000
H -3.4187200000 -0.8038020000 0.6619430000
H -3.1328800000 -0.6838060000 -1.0930600000
H -0.8661550000 -0.7501470000 -0.5423480000
O 3.3957200000 0.3772280000 -0.2787840000
O 2.3638600000 0.0896014000 0.6020240000
O 1.2329700000 -0.3322320000 -0.1746810000
O -1.5025600000 -0.9845010000 0.1483380000
