31
0 1
C -1.8204100000 -0.6076740000 0.0816719000
C 2.1556000000 -2.1003100000 -0.6756110000
C 2.7600300000 -1.2595100000 0.4488680000
C 2.4250200000 1.2687200000 0.0354399000
C 0.9310340000 -1.3672700000 -1.2252700000
C -2.6560600000 1.8326900000 -0.7539090000
C -2.9254400000 0.3954140000 0.0160491000
C -0.4554910000 -0.0931701000 0.4889980000
C 1.8403400000 -0.0789909000 0.6395560000
H 2.7841400000 -1.7202800000 1.4389700000
H 0.5884020000 1.9369300000 0.5949310000
H -0.0012824500 -1.9340900000 -1.4718700000
H 1.1736200000 -0.9119960000 -2.1597800000
H 1.7169700000 -2.9757700000 -0.2507610000
H 2.8727600000 -2.3703300000 -1.4724000000
H 3.8419300000 -1.0320100000 0.2034560000
H 1.4954300000 0.2388240000 1.5864800000
H -2.3487200000 1.6523200000 -1.8083100000
H -1.7905900000 2.4950400000 -0.4276370000
H -4.2959200000 -0.8581760000 -0.3082880000
H -3.3403200000 0.5379430000 0.9812880000
H -1.5593000000 -1.0229500000 -0.9234110000
H -1.7141600000 -2.5931900000 0.6989870000
H -2.2206800000 -1.3465400000 1.8641600000
H -3.6005100000 2.4342600000 -0.7618170000
N -2.2487600000 -1.7288800000 0.9410390000
N 0.6893290000 -0.3788130000 -0.1970340000
O 3.4165800000 1.4773900000 -0.6145320000
O -0.4649510000 0.6400090000 1.4676200000
O -3.9768500000 -0.1000860000 -0.7553430000
O 1.4985500000 2.2682500000 0.2364070000
