17
0 1
C -0.6185910000 0.5896790000 -0.2695650000
C -1.3927700000 -0.6555810000 0.0798570000
C 0.6932110000 0.7914680000 0.6500250000
C 1.8334900000 0.0536973000 -0.0166298000
H -2.9479700000 0.4311980000 0.0638347000
H 2.8138500000 -1.6722100000 -0.4656710000
H 0.6199130000 0.4101630000 1.7098900000
H 1.0383100000 1.8467000000 0.6894290000
H 1.1596600000 -1.8922100000 -0.1991560000
H -1.1989400000 2.2761800000 0.6686960000
H -1.4726700000 2.3036500000 -0.9444560000
H -0.1937560000 0.5266290000 -1.2612200000
N -1.5284000000 1.6943700000 -0.1528660000
N 1.9260200000 -1.2411000000 -0.1773600000
O 2.8571800000 0.7347950000 -0.1689460000
O -0.8960250000 -1.7504100000 0.2012500000
O -2.6728700000 -0.4942130000 -0.1087910000
