10
0 1
C -1.1473500000 -0.1960750000 0.0114352000
C 1.1559700000 -0.1527730000 0.0208531000
H -1.1915200000 1.7754800000 -0.5233590000
H 1.0929700000 1.7890200000 0.5357790000
H -0.0224121000 -1.9729100000 0.1385740000
N -0.7195930000 1.1330400000 0.0984703000
N 0.6689250000 1.1639700000 -0.0870196000
N 0.0250178000 -0.9728920000 0.0089015800
O -2.2884800000 -0.5585230000 -0.0206162000
O 2.3195800000 -0.5373910000 -0.0402826000
