9
0 1
C -0.6936640000 -0.7461150000 0.0714522000
C 0.5332370000 0.1281190000 0.0257025000
H -1.5473300000 0.8697560000 -0.1193250000
H -0.6287750000 -1.2707400000 1.0706900000
H -0.5950480000 -1.4628700000 -0.7302770000
H 1.5771600000 -1.4249000000 0.0982471000
O -1.8215800000 -0.0248170000 -0.0771392000
O 1.7120300000 -0.4389980000 -0.0845684000
O 0.3791210000 1.3384100000 0.0489241000
