13
0 1
C 0.5038790000 -0.5683990000 0.0458224000
C -1.6406400000 -0.7063290000 -0.0052811600
C 0.0626863000 0.6979930000 0.0274274000
H 2.2041500000 -1.2734500000 0.8955920000
H 2.0404900000 -1.6954100000 -0.6718160000
H -2.7061900000 -1.0487600000 0.1221940000
H -1.9223000000 1.4479800000 -0.1780710000
H 0.4509820000 2.5579700000 0.7488200000
H 1.6936100000 1.8833800000 -0.1839550000
N 1.9002200000 -0.9102820000 -0.0432400000
N -0.5528830000 -1.4475900000 -0.0008673190
N -1.3169000000 0.6340160000 -0.0190855000
N 0.6386700000 1.9508200000 -0.0997463000
