8
0 1
C 0.2917300000 1.1988200000 -0.0721704000
C -1.2007400000 -0.3232200000 -0.0420463000
H 0.7237820000 2.1690700000 -0.2179840000
H -2.1894700000 -0.6513240000 -0.0351853000
N -0.9995330000 0.9623620000 0.1211290000
N -0.3280710000 -1.3064400000 -0.0720327000
N 1.0004500000 -0.9291260000 0.0889747000
N 1.3156900000 0.3058660000 -0.0040041800
