15
0 1
C 1.3148200000 -0.7030750000 -0.0616868000
C -0.9255830000 -0.6801240000 0.0059565500
C -0.9660530000 0.7149530000 -0.1019930000
C 1.2958900000 0.6983950000 0.0387836000
H 3.0506700000 -1.0469900000 0.7282920000
H 2.3799200000 -2.3439300000 0.0140619000
H 3.0835700000 1.0134400000 -0.6907180000
H 2.4805100000 2.3546600000 0.1327180000
N 2.5334500000 -1.3277200000 -0.1076880000
N 0.2309310000 -1.4257700000 0.0381132000
N -2.1435800000 -1.1320300000 -0.0100502000
N -2.1922900000 1.1197400000 -0.0571311000
N 0.1767590000 1.4441300000 -0.0142586000
N 2.5192900000 1.3423800000 0.1215090000
O -2.8976400000 -0.0378925000 0.0919781000
