33
0 1
C 2.6878500000 0.1536980000 -0.1850110000
C -3.1892100000 -1.1244400000 0.4679540000
C -1.9793200000 0.1821310000 2.2016800000
C -1.8053900000 -0.7478720000 0.9825530000
C -3.1924400000 -1.7215100000 -0.9632500000
C -1.0299500000 0.0230327000 -0.1346830000
C 3.8519000000 -0.7787670000 0.0444990000
C 1.3170600000 -0.5423720000 -0.1190480000
C -1.7763500000 1.2869900000 -0.6286380000
H -2.4497500000 -0.3631210000 3.0123500000
H -3.3066200000 1.9173000000 -1.3779000000
H -2.7834500000 -0.9794000000 -1.6907600000
H -4.2122200000 -2.0244300000 -1.2167800000
H -2.5381200000 -2.6174100000 -0.8850980000
H -3.8448900000 -0.2766570000 0.5022500000
H -3.6036300000 -1.8897300000 1.0903200000
H -0.9653370000 0.5872380000 2.4724600000
H -2.5297100000 1.0159500000 1.7677800000
H -0.9747220000 -0.7725530000 -0.9550080000
H 0.4079580000 1.2295800000 0.5833710000
H 5.7116500000 -0.3493180000 0.1337630000
H 4.0411300000 -1.0202500000 1.0870100000
H 3.6834700000 -1.7783000000 -0.4806910000
H 2.7382200000 0.5828900000 -1.1506000000
H 2.9351600000 1.1289200000 1.6745400000
H 3.3413900000 2.0316500000 0.3875230000
H -1.1894600000 -1.6220800000 1.2846300000
N 2.6564500000 1.3363400000 0.6885640000
N 0.2865980000 0.2964660000 0.2676220000
O -1.3334200000 2.4148700000 -0.5091130000
O 1.1625300000 -1.6349500000 -0.5899420000
O 5.0235300000 -0.1566580000 -0.5400200000
O -2.8985700000 1.0498300000 -1.2270300000
