17
0 1
C 2.5542800000 0.0272224000 0.2616950000
C 0.1074090000 -0.2987240000 -0.0617632000
C -1.1688500000 1.7403100000 -0.3474850000
H -2.0785400000 1.1450100000 -0.5367210000
H -0.7193110000 2.0102700000 -1.3054800000
H -1.4364700000 2.6480500000 0.2021090000
H 0.5823980000 1.5033400000 0.7200440000
H 1.5292400000 -1.4592000000 -0.7595090000
H 3.4772200000 -0.3848560000 -0.1516580000
H 2.5323000000 -0.2369700000 1.3392700000
H 2.6083500000 1.1166300000 0.1593300000
H -2.0418400000 -0.5002440000 1.0860700000
H -2.4745800000 -1.9062200000 0.3536610000
N -2.0423000000 -1.0074400000 0.1880170000
N -0.7104500000 -1.2781400000 -0.1887140000
N -0.2387160000 0.9550840000 0.4760000000
N 1.4292100000 -0.4907480000 -0.5069860000
