31
0 1
C -1.8512300000 0.8129990000 0.3310640000
C 2.5405800000 1.7800000000 0.6385030000
C 2.8692800000 1.0464300000 -0.6547670000
C 2.3511500000 -1.3397300000 -0.0797759000
C 0.9693960000 1.8318100000 0.6360290000
C -3.7912800000 -0.6126970000 -0.8780380000
C -3.0459700000 -0.1324760000 0.4120130000
C -0.5903440000 -0.0252309000 -0.0944935000
C 1.8117500000 -0.0297491000 -0.7361230000
H 3.8824000000 0.7152540000 -0.6310990000
H 0.5095700000 -1.8717500000 -0.0934636000
H 0.5712540000 1.9151400000 1.6446500000
H 0.6571930000 2.7015700000 0.0475726000
H 2.7716200000 1.2641900000 1.5496700000
H 2.8995100000 2.7697900000 0.7338750000
H 2.7408200000 1.7415700000 -1.4796400000
H 1.5070000000 -0.2863320000 -1.7252400000
H -3.8271800000 0.2122260000 -1.5938600000
H -4.7836000000 -0.9245300000 -0.5851570000
H -1.8926700000 -1.5480400000 0.7616270000
H -3.8096000000 0.4630160000 0.9953950000
H -1.5892200000 1.2170700000 1.3444800000
H -3.0106900000 2.3442500000 -0.1958390000
H -1.4752600000 2.6029000000 -0.5914550000
H -3.1933600000 -1.4659100000 -1.2972600000
N -2.1577600000 1.8974800000 -0.6110880000
N 0.6208950000 0.5768120000 -0.0019301800
O 3.5200200000 -1.5644100000 0.0969489000
O -0.7945310000 -1.1023000000 -0.5659730000
O -2.6988100000 -1.2360200000 1.2016900000
O 1.3758500000 -2.2420800000 0.2623830000
