8
0 1
C 0.7836040000 -0.0341561000 0.0075097400
C -1.3718400000 -0.6352200000 0.0090650900
C -1.2713400000 0.7061850000 0.0137352000
H -2.1129900000 -1.4097900000 0.1102880000
H -2.1410100000 1.4411800000 0.0497450000
O 1.9492300000 -0.0173756000 0.0304452000
O -0.0506893000 -1.1128700000 -0.0400823000
O 0.0278972000 1.0987200000 -0.0330995000
