21
0 1
H -1.4918400000 -0.5887010000 -1.3777900000
H -3.1166600000 0.1073140000 -0.5012010000
H -4.6254200000 0.3931480000 0.2476370000
H 2.2657300000 1.4581300000 -0.0026164300
H 1.7670600000 2.1323000000 -1.4384500000
H -2.3044500000 -1.3584900000 -2.5326100000
H -2.5231100000 -0.2554380000 1.3639900000
H 2.7154600000 -2.4557800000 -0.5187240000
H -1.6593100000 0.7940590000 2.1426000000
H 3.2464200000 -0.3877770000 0.2674490000
H 4.2526900000 0.7643780000 0.8046720000
H -0.3537540000 -0.3976400000 0.8064320000
H 0.5483390000 0.2704840000 -0.2901680000
H 1.5292400000 -1.4792000000 0.0713207000
O -2.3310500000 -0.5272950000 -1.8448600000
O 2.4465700000 -1.8508800000 0.1779590000
O 1.5309200000 2.0671200000 -0.4353850000
O 3.6401200000 0.5427500000 0.0560571000
O -3.6331900000 0.6654710000 0.2473680000
O -1.7499800000 -0.2349520000 2.0182600000
O 0.0653192000 -0.5368100000 -0.0997156000
