21
0 1
C -1.8458100000 -1.0361700000 0.3566150000
C -1.4272100000 0.2197390000 -0.5683670000
C 1.1959500000 0.3169410000 -0.3877170000
C 1.6716700000 -1.0923600000 0.0206595000
C 1.4114000000 1.3271800000 0.7267950000
H 0.6729920000 -1.6510800000 -1.4695700000
H 0.1881470000 2.6734600000 -0.0111536000
H 0.7951390000 1.1504900000 1.6233700000
H 2.4653000000 1.3894500000 0.9705680000
H 1.8971000000 0.5512210000 -1.2274300000
H -2.1233700000 -1.8598600000 -0.3307710000
H -1.0010300000 -1.4213700000 1.0220900000
H -3.8457400000 -0.4145150000 0.6182180000
H -2.8088000000 0.0499475000 1.8126700000
H -0.1604680000 0.8102340000 -1.8884800000
N -3.0818800000 -0.7328670000 1.1980800000
N -0.1153160000 0.2416310000 -0.9926030000
O 1.0931500000 2.6756100000 0.2972590000
O -2.2433900000 1.0784800000 -0.8202270000
O 2.5719400000 -1.2041400000 0.8156340000
O 1.1114500000 -2.0813700000 -0.7233850000
