15
0 1
H -0.2745890000 1.4922700000 0.3276540000
H 0.5351430000 2.0373000000 1.6251000000
H -2.0852900000 0.3523800000 -0.4082860000
H -1.7448000000 1.4488300000 -1.3257000000
H -2.4751500000 -1.8010000000 0.3187550000
H -0.9392660000 -1.4659400000 0.1312180000
H 1.3765800000 -1.2162100000 0.0482350000
H 0.5322810000 -0.4855840000 1.0569300000
H 3.1832900000 -0.2258540000 -0.2576590000
H 1.9213600000 0.6453350000 -0.5151440000
O 0.6520880000 1.4105200000 0.7898840000
O -1.8738900000 1.2949700000 -0.3906230000
O -1.8637400000 -1.2927900000 -0.2426610000
O 0.6592710000 -1.4327500000 0.7078500000
O 2.4225800000 -0.0776411000 -0.9895880000
