19
0 1
B 2.4752500000 0.1904000000 0.0044600000
O 3.7575900000 0.6672200000 0.0209300000
O 1.4277200000 1.0570300000 0.0179800000
O 2.2690400000 -1.1630500000 -0.0257200000
H 3.7896800000 1.6215700000 0.0416300000
H 0.5727300000 0.6211200000 0.0048200000
H 3.0908400000 -1.6500200000 -0.0322400000
C -2.8931737560 0.7226677380 0.7256053040
C -2.1044437560 -0.2099022620 1.3828053040
C -2.9009237560 0.7715577380 -0.6604046960
H -3.4992837560 1.4145177380 1.2941853040
C -1.3218537560 -1.0938822620 0.6537353040
H -2.0946337560 -0.2447722620 2.4635053040
C -2.1199837560 -0.1121522620 -1.3904146960
H -3.5129937560 1.5015377380 -1.1720846960
C -1.3296837560 -1.0449722620 -0.7340746960
H -0.6913637560 -1.8108522620 1.1602653040
H -2.1223337560 -0.0709722620 -2.4709346960
H -0.7058637560 -1.7247622620 -1.2970346960
