24
0 1
N -0.9868900000 0.1985600000 0.0552900000
B -1.7897200000 1.3771500000 0.0317800000
C -1.4991800000 -1.0572500000 0.0380100000
H 0.0184100000 0.2599500000 0.0847800000
C -3.2794000000 1.1289900000 -0.0135000000
H -1.2341000000 2.4344600000 0.0492300000
C -2.8400800000 -1.2658300000 -0.0028100000
H -0.7891600000 -1.8725600000 0.0579300000
C -3.7293000000 -0.1606100000 -0.0283900000
H -4.0135300000 1.9249400000 -0.0349600000
H -3.2182800000 -2.2768700000 -0.0156600000
H -4.7925200000 -0.3744500000 -0.0606700000
C 1.8321475830 -0.1657652500 -1.3887750830
C 1.8905575830 1.1081847500 -0.8423750830
C 1.8078275830 -1.2765852500 -0.5578050830
H 1.7999875830 -0.2924852500 -2.4619350830
C 1.9239475830 1.2715047500 0.5352349170
H 1.9012975830 1.9741447500 -1.4893150830
C 1.8410375830 -1.1136152500 0.8198849170
H 1.7621775830 -2.2693052500 -0.9843850830
C 1.8989075830 0.1605447500 1.3664049170
H 1.9609275830 2.2645047500 0.9608649170
H 1.8205175830 -1.9789152500 1.4680949170
H 1.9187775830 0.2881547500 2.4397649170
