13
0 1
B 0.7059300000 0.0004300000 0.9379500000
C 1.1913900000 0.7720600000 -0.2857600000
C 1.1908500000 -0.7724400000 -0.2851900000
H 0.2966300000 0.0009100000 2.0461800000
H 2.1523200000 1.2729900000 -0.2611500000
H 0.4763800000 1.2701800000 -0.9296800000
H 2.1514800000 -1.2739300000 -0.2600400000
H 0.4756300000 -1.2706000000 -0.9288500000
C -2.1661116870 0.0000546000 -0.0882716750
H -1.7792516870 0.8909146000 0.4031983250
H -3.2517116870 0.0003646000 -0.0274416750
H -1.8591016870 -0.0003454000 -1.1318516750
H -1.7797316870 -0.8907254000 0.4037383250
