22
0 1
C 1.5024700000 -1.2346600000 0.3641000000
C 2.8900400000 -1.1639000000 0.3500800000
C 3.5703500000 0.0000300000 -0.0000500000
C 2.8899400000 1.1639400000 -0.3500100000
C 1.5023100000 1.2347100000 -0.3641500000
H 4.6526200000 0.0000500000 -0.0001200000
H 1.0575500000 -2.1745400000 0.6808700000
H 3.4774900000 -2.0337300000 0.6258100000
H 3.4773700000 2.0336600000 -0.6261200000
H 1.0577400000 2.1745000000 -0.6816500000
B 0.7607200000 0.0000100000 0.0000200000
C -2.2445650000 1.0921000000 0.3837350000
C -3.6204450000 1.1270500000 0.3870850000
C -4.3259250000 -0.0000100000 -0.0001250000
C -3.6203450000 -1.1271300000 -0.3870450000
C -2.2444850000 -1.0921000000 -0.3833750000
N -1.5656150000 0.0000100000 0.0001850000
H -5.4064650000 -0.0000100000 -0.0002350000
H -1.6372950000 1.9270500000 0.6970850000
H -4.1256750000 2.0272600000 0.7019850000
H -4.1254750000 -2.0274100000 -0.7019050000
H -1.6369650000 -1.9270300000 -0.6962950000
