26
0 1
C -1.1002000000 -1.1557000000 1.2437900000
C -1.8715300000 -1.5221500000 0.1834900000
C -0.7389500000 0.1344100000 1.7127200000
H -0.6909000000 -1.9760100000 1.8220000000
C -2.5504700000 -0.7241600000 -0.7750900000
H -1.9872900000 -2.5908400000 0.0444500000
C -1.0661600000 1.3547800000 1.2046300000
H -0.1024700000 0.1147600000 2.5925400000
C -2.5892800000 0.6326800000 -0.8915400000
H -3.1045700000 -1.3036900000 -1.5082800000
H -0.6432300000 2.1898300000 1.7566200000
B -1.9140800000 1.6817200000 -0.0174500000
H -3.1881200000 0.9873700000 -1.7264600000
H -2.0645200000 2.8353400000 -0.3054900000
B 3.7817720830 -0.0431716960 0.4332715770
N 3.3250720830 1.1730983040 -0.1471584230
N 3.2624220830 -1.2583116960 -0.1002084230
H 4.5671420830 -0.0474016960 1.3348515770
B 2.3704020830 1.2098883040 -1.2069384230
H 3.6721620830 2.0417583040 0.2160615770
B 2.3213420830 -1.2885916960 -1.1728884230
H 3.5780920830 -2.1281316960 0.2880115770
N 1.9053320830 -0.0389016960 -1.7095584230
H 1.9843420830 2.2455683040 -1.6593484230
H 1.9072820830 -2.3234116960 -1.6043384230
H 1.2151020830 -0.0330016960 -2.4382084230
