11
0 1
C 1.5024700000 -1.2346600000 0.3641000000
C 2.8900400000 -1.1639000000 0.3500800000
C 3.5703500000 0.0000300000 -0.0000500000
C 2.8899400000 1.1639400000 -0.3500100000
C 1.5023100000 1.2347100000 -0.3641500000
H 4.6526200000 0.0000500000 -0.0001200000
H 1.0575500000 -2.1745400000 0.6808700000
H 3.4774900000 -2.0337300000 0.6258100000
H 3.4773700000 2.0336600000 -0.6261200000
H 1.0577400000 2.1745000000 -0.6816500000
B 0.7607200000 0.0000100000 0.0000200000
