13
0 1
B 1.7792100000 0.0028400000 0.3062400000
H 1.5501900000 0.0021200000 1.4945000000
H 2.2832200000 1.0158200000 -0.1144800000
H 2.2863500000 -1.0083300000 -0.1150900000
S 0.1992960000 0.0003740000 -0.4466370000
C -0.6283840000 -1.3772860000 0.3496630000
H -1.6788040000 -1.3944660000 0.0699630000
H -0.1379740000 -2.2823660000 0.0013430000
H -0.5083040000 -1.2930160000 1.4276230000
C -0.6330740000 1.3751840000 0.3497130000
H -0.1461140000 2.2820040000 0.0010830000
H -1.6836340000 1.3884840000 0.0703430000
H -0.5123640000 1.2915340000 1.4276430000
