10
0 1
B -0.7679100000 -0.0246500000 0.0032500000
O -0.1056900000 -1.2037900000 0.0019100000
O -0.0710900000 1.1677200000 0.0019200000
O -2.1327600000 0.0275100000 0.0094200000
H 0.8556500000 -1.0915700000 -0.0199100000
H -0.6487800000 1.9282200000 -0.0132500000
H -2.5294000000 -0.8414600000 0.0031000000
O 5.7016857140 0.1569680950 0.0884571430
H 5.1361157140 0.9370280950 0.1228071430
H 6.2865757140 0.2186380950 0.8412471430
