12
0 1
B -1.5743800000 -0.7107300000 0.1718500000
B -1.4340600000 0.9359300000 -0.1866700000
CL -2.0956500000 -1.8219300000 -1.0670000000
CL -1.2540200000 -1.2836800000 1.7858900000
CL -2.8051500000 1.9879400000 0.0339400000
CL 0.0637100000 1.6254800000 -0.7931500000
B 2.5944724170 -0.7124070830 -0.6720056670
B 2.9737324170 0.2570529170 0.7073443330
F 1.7045624170 -1.6837570830 -0.6022156670
F 3.1808724170 -0.5192970830 -1.8329256670
F 2.4543324170 0.0013129170 1.8895143330
F 3.7900224170 1.2850129170 0.6169743330
