24
0 1
C 3.1838299068 -1.9265309917 0.6135734049
C 3.0328299068 1.8664690083 0.5225734049
C 2.6158299068 -0.5195309917 0.6175734049
O 1.4008299068 -0.3405309917 0.7075734049
N 3.4788299068 0.4794690083 0.4955734049
H 2.4318299068 -2.5635309917 0.1525734049
H 4.4678299068 0.2884690083 0.3815734049
H 2.2388299068 1.9524690083 1.2685734049
H 4.1029499068 -2.0179109917 0.0161834049
H 3.3364699068 -2.2786709917 1.6444434049
H 3.8418099068 2.5336990083 0.8547534049
H 2.5821099068 2.2052290083 -0.4219365951
C -1.6121700932 -0.1505309917 -2.0894265951
C -4.4121700932 -0.0045309917 0.4305734049
C -2.3151700932 0.1294690083 -0.7814265951
O -1.6981700932 0.5374690083 0.2205734049
N -3.6111700932 -0.1275309917 -0.7744265951
H -2.2121700932 0.2694690083 -2.8924265951
H -4.0811700932 -0.3615309917 -1.6434265951
H -3.7761700932 -0.0355309917 1.3185734049
H -0.6226400932 0.3291990083 -2.0631065951
H -1.5527860932 -1.2413609917 -2.2180965951
H -4.9496330932 0.9552290083 0.4291234049
H -5.1192960932 -0.8448809917 0.4920634049
