12
0 1
C -1.8434289007 0.0342952282 -0.5177344610
C 1.7025710993 0.6612952282 0.7642655390
C -0.3694289007 -0.2087047718 -0.1977344610
O 0.1545710993 -1.2997047718 -0.4267344610
N 0.3005710993 0.7992952282 0.3552655390
H -2.3254289007 -0.9437047718 -0.5497344610
H -0.1744289007 1.6842952282 0.4972655390
H 2.2965710993 0.3912952282 -0.1107344610
H -2.3083119007 0.6282702282 0.2829355390
H -1.9497829007 0.4916152282 -1.5124944610
H 2.0852210993 1.6189812282 1.1469155390
H 1.8226610993 -0.1464467718 1.5012355390
