24
0 1
C -2.6738184180 0.7037835406 -1.4854350493
C -2.8688184180 1.2007835406 2.2815649507
C -2.2488184180 0.7267835406 -0.0334350493
O -1.0548184180 0.6467835406 0.2535649507
N -3.2058184180 0.9227835406 0.8745649507
H -3.7548184180 0.8497835406 -1.5474350493
H -4.1718184180 0.9807835406 0.5775649507
H -1.8738184180 1.6477835406 2.3105649507
H -2.1496384180 1.5240735406 -1.9976450493
H -2.4286184180 -0.2698264594 -1.9348450493
H -3.5468884180 1.9593435406 2.6996649507
H -2.7964284180 0.3074735406 2.9193349507
C 2.0431815820 -0.5912164594 1.5355649507
C 2.1371815820 -0.6822164594 -2.2704350493
C 2.5521815820 -0.9512164594 -0.8304350493
O 3.6291815820 -1.4862164594 -0.5634350493
N 1.7111815820 -0.5432164594 0.1145649507
H 0.8161815820 -0.1352164594 -0.1414350493
H 3.1231815820 -0.6212164594 1.6855649507
H 1.0561815820 -0.5452164594 -2.2954350493
H 1.6325215820 0.3089035406 2.0163449507
H 1.5879515820 -1.4914864594 1.9740649507
H 2.6467515820 0.2289735406 -2.6169450493
H 2.3775215820 -1.5381064594 -2.9182750493
