12
0 1
C 1.2511188753 1.5842586816 0.0782205023
C -0.5528811247 -1.8097413184 0.2412205023
C -0.3428811247 -0.3257413184 -0.0397794977
O -1.2558811247 0.3352586816 -0.5707794977
N 0.8581188753 0.1762586816 0.2912205023
H 1.5431188753 -0.4427413184 0.7232205023
H 0.5261188753 1.9882586816 -0.6317794977
H 0.3461188753 -2.1827413184 0.7322205023
H 1.2017488753 2.1963286816 0.9908705023
H 2.2741088753 1.5628586816 -0.3255494977
H -1.4254721247 -1.9645713184 0.8928405023
H -0.6881721247 -2.3638613184 -0.6993394977
