12
0 1
C 1.4132966439 0.7774931644 -1.0160289765
C -1.5417033561 -1.1675068356 0.3819710235
C 0.3562966439 0.3024931644 -0.0270289765
O 0.3382966439 0.7154931644 1.1279710235
N -0.5187033561 -0.5945068356 -0.4800289765
H 2.2142966439 1.2564931644 -0.4500289765
H -0.4927033561 -0.8605068356 -1.4590289765
H -2.1577033561 -0.3535068356 0.7669710235
H 1.8332766439 -0.0812838356 -1.5601969765
H 0.9905766439 1.5188761644 -1.7100429765
H -2.1814233561 -1.8559448356 -0.1896977765
H -1.0817333561 -1.6771448356 1.2414455235
