14
0 1
C 2.7719860000 -0.3744110000 -0.1476010000
C 1.3474180000 -0.2830570000 0.4059770000
C 0.5055070000 0.7824830000 -0.3030260000
C -0.9102500000 0.9382610000 0.2296940000
H 0.4642110000 0.5763080000 -1.3777430000
H 0.9903400000 1.7623070000 -0.1927530000
Cl -1.9435260000 -0.5325870000 -0.0892000000
H -1.4328780000 1.7643360000 -0.2490140000
H -0.9275880000 1.0787470000 1.3102820000
H 3.3509000000 -1.1393080000 0.3760930000
H 3.3040120000 0.5761790000 -0.0405350000
H 2.7666030000 -0.6332100000 -1.2108110000
H 1.3834750000 -0.0568330000 1.4785860000
H 0.8528960000 -1.2542020000 0.3120330000
