14
0 1
C 0.4960890000 0.9207620000 -0.4702820000
Si -0.1429600000 -0.8292990000 -0.0488410000
O 1.9325960000 1.1649680000 -0.3045900000
C 2.6328430000 0.1672120000 0.1941640000
O 2.1774520000 -0.9155050000 0.4979730000
H 3.6885710000 0.4366190000 0.3006480000
O -1.7969130000 -0.6985410000 -0.5680710000
H -0.2408950000 -1.1632290000 1.3767540000
H 0.2796410000 -1.9044400000 -0.9516920000
C -2.6833420000 0.1280070000 -0.0143020000
O -2.4339810000 0.9726590000 0.8082960000
H -3.6931490000 -0.0543170000 -0.4117640000
H -0.0154140000 1.6517430000 0.1562230000
H 0.2759150000 1.1592770000 -1.5127320000
