13
0 1
C 0.5674460000 0.7225120000 0.0000010000
Si 2.2037880000 -0.2413630000 -0.0000010000
O -0.4688130000 -0.2330350000 -0.0000020000
H 3.2970570000 0.7590030000 0.0000060000
H 2.3104360000 -1.0873360000 -1.2085810000
H 2.3104330000 -1.0873480000 1.2085710000
O -1.7310260000 0.5332430000 -0.0000040000
C -2.7511980000 -0.4433480000 0.0000050000
H -3.6813880000 0.1292440000 0.0000020000
H -2.7031650000 -1.0704520000 0.8967220000
H -2.7031680000 -1.0704640000 -0.8967050000
H 0.5089930000 1.3648980000 -0.8891460000
H 0.5089920000 1.3648930000 0.8891520000
