12
0 1
C -1.0824520000 0.0001280000 -0.0971830000
N -2.2079490000 0.0000700000 0.1537600000
C 0.3539540000 0.0000050000 -0.3985330000
C 1.0198110000 -1.2793210000 0.1432850000
H 0.9476120000 -1.3208950000 1.2325090000
H 2.0768530000 -1.2881140000 -0.1326050000
H 0.5486080000 -2.1750640000 -0.2651000000
C 1.0200620000 1.2791910000 0.1433030000
H 0.4403040000 0.0000040000 -1.4912190000
H 0.9478400000 1.3207830000 1.2325240000
H 0.5490640000 2.1750320000 -0.2651020000
H 2.0771140000 1.2877580000 -0.1325570000
