11
0 1
Si 0.0000050000 -0.0000010000 -0.6367920000
N -1.4427700000 0.9075090000 0.0523030000
N -0.0645100000 -1.7032280000 0.0523470000
N 1.5073080000 0.7957340000 0.0523280000
O 2.4792600000 0.2734870000 -0.5026350000
O 0.6614720000 -2.1485590000 0.9151730000
O -1.4763390000 2.0104170000 -0.5025770000
O -1.0030390000 -2.2836850000 -0.5023240000
O -2.1913820000 0.5015090000 0.9151950000
O 1.5299950000 1.6468210000 0.9154490000
H 0.0000050000 -0.0000230000 -2.0900030000
