7
0 1
F -2.2144580000 0.0719850000 -0.8168920000
F -1.4371260000 -0.6706060000 1.1773480000
B -1.1942820000 -0.2029240000 -0.0257980000
C 0.2770990000 0.0561770000 -0.5392360000
Cl 1.3853190000 -1.2836670000 -0.1067980000
Cl 0.7807060000 1.6287840000 0.2087310000
H 0.3506490000 0.1981770000 -1.6125660000
