25
0 1
C 3.9227230000 -1.0432010000 -0.1778170000
C 3.8316340000 0.0360160000 0.6976240000
C 2.6598540000 0.7887790000 0.7555310000
C 2.8388570000 -1.3678010000 -0.9926040000
C 1.6705140000 -0.6131610000 -0.9314820000
C 1.5584010000 0.4817710000 -0.0584210000
H 4.8327280000 -1.6312970000 -0.2237950000
H 4.6703770000 0.2901700000 1.3365250000
H 2.6024140000 1.6245310000 1.4458260000
H 2.9044440000 -2.2093830000 -1.6735820000
H 0.8338880000 -0.8850100000 -1.5676550000
C -3.8316130000 0.0359950000 -0.6976650000
H -4.6703400000 0.2901240000 -1.3365970000
C -2.6598310000 0.7887540000 -0.7555710000
C -3.9227260000 -1.0431870000 0.1778170000
H -2.6023730000 1.6244800000 -1.4458970000
H -4.8327330000 -1.6312810000 0.2237950000
C -1.5584000000 0.4817780000 0.0584210000
C -2.8388820000 -1.3677550000 0.9926460000
C -1.6705370000 -0.6131190000 0.9315240000
H -2.9044880000 -2.2093100000 1.6736560000
H -0.8339280000 -0.8849430000 1.5677300000
Si 0.0000030000 1.5304650000 -0.0000010000
H -0.1035840000 2.4031010000 -1.1968050000
H 0.1035930000 2.4031050000 1.1967990000
