8
0 1
Si 0.5492700000 0.4411380000 0.0000010000
C -1.2381550000 -0.2349640000 0.0000010000
Cl 1.9025720000 -1.0624410000 -0.0000080000
F 0.7317450000 1.3444300000 1.2836880000
F 0.7317410000 1.3444410000 -1.2836790000
F -1.4767220000 -0.9940980000 -1.0902750000
F -2.1327770000 0.7765970000 0.0000080000
F -1.4767180000 -0.9941100000 1.0902690000
