16
0 1
C -1.9750580000 -0.6497650000 0.0000000000
C -1.3776690000 0.5968980000 0.0000000000
C -0.0000000000 0.7793520000 0.0000000000
C -1.1375360000 -1.7681550000 0.0000000000
C 0.2423590000 -1.6319820000 0.0000000000
C 0.8179800000 -0.3536190000 0.0000000000
H -3.0535930000 -0.7346570000 0.0000000000
F -2.1587170000 1.7018830000 0.0000000000
H 0.3908380000 1.7866220000 0.0000000000
H -1.5746920000 -2.7598540000 0.0000000000
H 0.8982850000 -2.4930740000 0.0000000000
O 2.1774080000 -0.3125470000 0.0000000000
C 2.8190050000 0.9553010000 0.0000000000
H 3.8875490000 0.7473520000 0.0000000000
H 2.5631600000 1.5344370000 0.8942340000
H 2.5631600000 1.5344370000 -0.8942340000
