15
0 2
Si -2.4772320000 0.0767880000 -0.0490220000
O -0.8570700000 0.5887570000 -0.0440800000
H -2.7822190000 -0.6844630000 1.1877870000
H -3.2037780000 1.3720880000 -0.0637450000
C 0.1096800000 -0.3724380000 -0.0328130000
O -0.1785280000 -1.5564830000 -0.0521990000
N 1.3694880000 0.1325350000 -0.0015310000
C 1.6797810000 1.5542440000 0.0373060000
H 0.7629780000 2.1338330000 0.0102240000
H 2.3030760000 1.8279600000 -0.8211370000
H 2.2309760000 1.7980010000 0.9525960000
C 2.4965240000 -0.7882870000 0.0178110000
H 2.1190810000 -1.8064960000 -0.0218910000
H 3.0842540000 -0.6547620000 0.9326540000
H 3.1493290000 -0.6082430000 -0.8430480000
