17
0 1
Si -1.1428330000 -1.0899370000 0.0556750000
C -0.1618740000 0.4851810000 -0.3515200000
C 1.2251780000 0.5530520000 0.3249340000
C -1.0000480000 1.7322160000 -0.0053180000
H -1.2022850000 1.7904320000 1.0694410000
H -1.9628490000 1.7368060000 -0.5234060000
H -0.4680380000 2.6478070000 -0.2858620000
H -0.0052490000 0.4742100000 -1.4396500000
C 2.2218610000 -0.5209360000 -0.1227400000
H 1.0998550000 0.5065810000 1.4140070000
H 1.6559300000 1.5413820000 0.1180960000
H 1.8881200000 -1.5283280000 0.1395420000
H 3.1970960000 -0.3658760000 0.3465020000
H 2.3679530000 -0.4947800000 -1.2071860000
H -1.3185820000 -1.2117470000 1.5255960000
H -0.4776890000 -2.3203810000 -0.4366060000
H -2.4853110000 -1.0140620000 -0.5720680000
