11
0 2
C 0.2653740000 0.0441760000 -0.5707920000
C 1.3933670000 -0.7315540000 0.0889720000
C 1.3291320000 0.7538040000 0.2694920000
H 2.1638190000 -1.1393050000 -0.5548560000
H 1.1529050000 -1.3572130000 0.9416860000
H 1.0413280000 1.1400930000 1.2403120000
H 2.0448420000 1.3711220000 -0.2615270000
Si -1.4916070000 -0.1022000000 0.0299930000
H -1.5005090000 -0.2254050000 1.5136770000
H -2.3217100000 1.0624940000 -0.3821050000
H 0.3745910000 0.1804630000 -1.6431290000
