12
0 1
C 1.4858410000 -1.1863140000 0.0000030000
C 2.2374700000 -0.0500660000 0.0000060000
N 0.1270000000 -1.1102690000 0.0000010000
C -0.6133140000 0.0621010000 0.0000040000
C 0.1876990000 1.2505870000 0.0000010000
C 1.5540790000 1.1961380000 0.0000040000
S -2.2863880000 0.0047480000 -0.0000080000
H -0.4257600000 -1.9586430000 -0.0000010000
H 1.9047520000 -2.1838530000 0.0000030000
H 3.3164490000 -0.1071360000 0.0000080000
H -0.3398400000 2.1940350000 -0.0000020000
H 2.1269490000 2.1168290000 0.0000050000
