11
0 1
C 1.6936260000 -0.6160840000 -0.0000040000
C 0.4104970000 0.1937020000 -0.0000070000
H 2.5433340000 0.0627010000 -0.0000080000
H 1.7420540000 -1.2604230000 -0.8832560000
H 1.7420560000 -1.2604130000 0.8832560000
B -2.0985770000 -0.1160910000 0.0000170000
O 0.3864680000 1.3974850000 -0.0000070000
N -0.7679980000 -0.5909910000 0.0000080000
H -2.9671110000 -0.9303750000 -0.0000060000
H -2.3052220000 1.0492780000 -0.0000170000
H -0.6027230000 -1.5889660000 0.0000110000
