9
0 2
B -1.4521490000 -0.4753450000 -0.0000020000
C -0.2093750000 0.4371710000 0.0000020000
C 1.1888990000 -0.2017330000 0.0000000000
H -0.3277560000 1.1128810000 0.8657630000
H -0.3277390000 1.1129310000 -0.8657200000
H 1.3300760000 -0.8340810000 0.8801270000
H 1.9785030000 0.5551640000 0.0000290000
H 1.3300960000 -0.8340330000 -0.8801590000
H -2.5995810000 -0.1487630000 -0.0000390000
