17
0 1
O 0.5302780000 -0.0001600000 -0.8106780000
C 1.4428730000 -0.0001400000 0.1842000000
Si -1.1572700000 -0.0000250000 -0.5339560000
O 1.1380890000 0.0001590000 1.3527060000
C 2.8557230000 -0.0000350000 -0.3404790000
C -1.6760110000 1.5582370000 0.3531730000
H -1.2666340000 1.5845520000 1.3650980000
H -2.7676670000 1.6083600000 0.4192070000
H -1.3340040000 2.4485990000 -0.1816570000
H 3.0143720000 0.8790440000 -0.9693470000
H 3.0145760000 -0.8792610000 -0.9690870000
H 3.5587690000 0.0001710000 0.4896980000
C -1.6762250000 -1.5580800000 0.3534110000
H -1.2668500000 -1.5842960000 1.3653400000
H -1.3343400000 -2.4485710000 -0.1812820000
H -2.7678880000 -1.6080430000 0.4194530000
H -1.6736410000 -0.0000970000 -1.9201060000
