9
0 1
O 0.9428800000 -1.0078600000 0.1572770000
N 2.2540530000 -0.1654860000 0.0408920000
O 2.2876510000 0.8358880000 0.6651930000
O 3.0035670000 -0.7446950000 -0.6685700000
O 0.0580410000 -0.3448490000 1.0225890000
C -1.0417420000 0.1570440000 0.3149330000
F -1.7606420000 0.7559610000 1.2634980000
Cl -2.0083710000 -1.1525190000 -0.4217890000
Cl -0.5809980000 1.3586730000 -0.9287550000
