12
0 1
S -1.3700100000 -0.0805490000 -0.0920250000
C 0.4166630000 0.0166800000 0.4020210000
C 1.0917520000 -1.2652720000 -0.0897430000
H -1.7489300000 1.0955550000 0.4371330000
H 1.0568090000 -1.3325910000 -1.1808850000
H 0.6130380000 -2.1555870000 0.3240180000
C 1.0930130000 1.2734380000 -0.1422530000
H 0.4370270000 0.0300660000 1.4942470000
H 2.1435610000 1.2991480000 0.1679540000
H 0.6129320000 2.1821740000 0.2286350000
H 1.0550980000 1.2925830000 -1.2342780000
H 2.1420520000 -1.2716450000 0.2154330000
