20
0 1
Cl 1.8654520000 1.7253170000 0.4583490000
S 0.8129180000 -0.7069060000 -0.7234110000
O 1.1529360000 -0.0619110000 -1.9594440000
O 0.9607320000 -2.1257170000 -0.5122850000
N 1.8643890000 -0.0370470000 0.4672850000
C -0.8523160000 -0.2437650000 -0.2831000000
C -1.5972680000 -1.0834070000 0.5464460000
H -1.1719050000 -2.0170890000 0.8901760000
C -2.8958510000 -0.7161680000 0.8879530000
H -3.4868060000 -1.3634630000 1.5251650000
C -3.4376020000 0.4722950000 0.4005960000
H -4.4505900000 0.7519890000 0.6663170000
C -2.6877280000 1.2962120000 -0.4377410000
H -3.1166320000 2.2122170000 -0.8264780000
C -1.3883930000 0.9417270000 -0.7880160000
H -0.7995020000 1.5572950000 -1.4544430000
C 1.7259230000 -0.5542860000 1.8365530000
H 1.7584560000 -1.6407100000 1.7709630000
H 0.8023610000 -0.2289310000 2.3271900000
H 2.5845880000 -0.2064960000 2.4104550000
