15
0 1
C 2.1792260000 -1.0111720000 -0.1051800000
C 0.8102740000 -1.2710270000 -0.0816170000
C 2.6398110000 0.3014050000 -0.0297240000
C 1.7281310000 1.3520870000 0.0722600000
C 0.3609530000 1.0928920000 0.1125140000
C -0.1085450000 -0.2233280000 0.0436960000
P -1.9056460000 -0.6277550000 0.0746810000
O -2.5946100000 0.8773630000 -0.1907070000
H -3.0386100000 0.8837790000 -1.0437680000
H 2.8832390000 -1.8308800000 -0.1964760000
H 0.4560450000 -2.2940790000 -0.1675100000
H 3.7041950000 0.5061790000 -0.0585880000
H 2.0840950000 2.3752640000 0.1251260000
H -0.3522870000 1.9051860000 0.1897080000
H -2.0542130000 -0.5931700000 1.4852560000
