9
0 1
F 1.8299320000 -0.7073960000 0.0000010000
O 1.3285430000 0.6323300000 -0.0000010000
C -0.0398690000 0.6234320000 -0.0000010000
N -0.7773870000 -0.3794130000 0.0000010000
H -0.3132690000 1.6876590000 -0.0000030000
C -2.2158610000 -0.1720940000 0.0000000000
H -2.6451680000 -0.6585200000 -0.8795080000
H -2.5180320000 0.8851630000 -0.0000020000
H -2.6451680000 -0.6585170000 0.8795100000
