7
0 1
H -2.0600180000 1.0186300000 0.0024730000
H -2.0600170000 -1.0186300000 0.0024730000
B -1.4417520000 0.0000000000 -0.0203450000
Si 0.5730870000 0.0000000000 -0.0050010000
H 0.9662880000 -0.0000060000 1.4331420000
H 1.1696430000 -1.2045730000 -0.6331770000
H 1.1696440000 1.2045770000 -0.6331680000
