8
0 1
Si 0.0137350000 0.0011330000 0.0012380000
F -0.1446610000 -0.9372530000 1.2804980000
O 0.0253760000 1.5790900000 0.3803740000
O -1.2749670000 -0.2559270000 -0.9637380000
O 1.4519250000 -0.4066920000 -0.6285980000
H -0.8184840000 2.0267970000 0.4754120000
H -1.5723060000 -1.1576550000 -1.1056370000
H 1.8817820000 0.2184980000 -1.2158960000
