19
0 1
C 0.8469300000 0.4337650000 -0.3759370000
C 1.5571760000 -0.4883820000 -1.1519590000
H 1.1362870000 -0.8535490000 -2.0823130000
C 2.8059200000 -0.9384650000 -0.7299160000
H 3.3507590000 -1.6573170000 -1.3309910000
C 3.3586350000 -0.4524380000 0.4525570000
H 4.3348630000 -0.7959610000 0.7753050000
C 2.6605380000 0.4815730000 1.2187110000
H 3.0925480000 0.8629430000 2.1369150000
C 1.4055250000 0.9213330000 0.8126690000
H 0.8613830000 1.6470730000 1.4052980000
P -0.7827100000 1.0144580000 -0.9801820000
F -0.8429980000 2.4828130000 -0.2786500000
C -1.8464390000 0.1554580000 0.3379150000
O -2.4742830000 0.7593350000 1.1647690000
C -1.9411480000 -1.3818080000 0.2650910000
F -1.5750120000 -1.7990920000 -0.9880890000
F -1.0681430000 -1.9212720000 1.1579030000
H -2.9483780000 -1.7430090000 0.4850880000
