11
0 1
Si 1.9586310000 -0.4207230000 0.0000080000
Si 0.0000000000 0.8934050000 -0.0000040000
H 1.9938790000 -1.2862700000 -1.2037010000
H 1.9938720000 -1.2862590000 1.2037240000
H 3.1667340000 0.4394990000 0.0000080000
Si -1.9586310000 -0.4207230000 -0.0000040000
H 0.0000040000 1.7693120000 -1.2004950000
H -0.0000040000 1.7693230000 1.2004790000
H -1.9938720000 -1.2862700000 -1.2037130000
H -3.1667340000 0.4394990000 -0.0000120000
H -1.9938800000 -1.2862590000 1.2037120000
