16
0 2
Si 0.4751160000 -0.0017570000 -0.4034190000
C -1.1149740000 -0.7643970000 0.3029720000
C -2.4237030000 -0.0511650000 -0.0748030000
H -1.0047070000 -0.7876400000 1.3973270000
H -1.1555150000 -1.8129300000 -0.0135680000
H -2.4288370000 0.9883530000 0.2654660000
H -3.2922760000 -0.5436390000 0.3726600000
H -2.5726540000 -0.0405960000 -1.1583000000
C 1.9687850000 -1.0425560000 0.1097910000
H 2.0706520000 -1.0606830000 1.2022930000
H 2.8956900000 -0.6370610000 -0.3045540000
H 1.8718240000 -2.0756840000 -0.2343410000
C 0.6929980000 1.7816380000 0.1898820000
H 0.7529710000 1.8182950000 1.2851730000
H -0.1398290000 2.4169330000 -0.1218670000
H 1.6124270000 2.2181400000 -0.2094800000
