15
0 1
C 1.9141890000 -0.8089600000 0.0000070000
C 0.6849060000 0.0656180000 0.0000200000
O -0.4485580000 -0.6685770000 0.0000040000
O 0.7024490000 1.2775840000 0.0000030000
B -1.7463370000 -0.1065800000 -0.0000090000
O -2.7444840000 -1.0250510000 -0.0000240000
C 3.2239990000 -0.0270220000 -0.0000010000
H 1.8356200000 -1.4701430000 -0.8697140000
H 1.8356330000 -1.4701470000 0.8697270000
H 3.2993900000 0.6141150000 -0.8801320000
H 4.0745420000 -0.7120700000 -0.0000090000
H 3.2994030000 0.6141120000 0.8801300000
H -3.6084080000 -0.6020270000 -0.0000280000
O -1.9841150000 1.2242180000 0.0000040000
H -1.1453920000 1.7158530000 0.0000210000
