8
0 1
C 0.8327480000 0.4313100000 0.0000140000
O 1.3016010000 -0.6729230000 -0.0000060000
O -0.4748220000 0.7294600000 0.0000000000
H 1.4092360000 1.3673620000 -0.0000150000
C -1.3708970000 -0.4006660000 -0.0000020000
H -1.2110860000 -1.0130200000 -0.8886490000
H -2.3723750000 0.0225030000 -0.0000160000
H -1.2111040000 -1.0130080000 0.8886550000
