20
0 1
C -2.5510110000 -0.3957660000 -0.2950210000
B -1.3742390000 0.6309030000 -0.1531890000
C 0.1310340000 0.2687840000 -0.0623100000
C 1.0946030000 1.2974200000 -0.0252440000
C 0.6031420000 -1.0591160000 -0.0192930000
C 1.9614120000 -1.3453660000 0.0531120000
C 2.8896820000 -0.3037650000 0.0871550000
C 2.4559160000 1.0205720000 0.0482430000
H 3.9499470000 -0.5255160000 0.1454190000
H 3.1779120000 1.8292410000 0.0757910000
H 0.7582260000 2.3285510000 -0.0556080000
H -0.1071280000 -1.8785110000 -0.0425060000
H 2.3015540000 -2.3746460000 0.0848580000
C -3.8960520000 0.0361960000 0.3177530000
H -2.2868850000 -1.4037800000 0.0450550000
H -2.6814810000 -0.4966240000 -1.3881980000
H -3.8260710000 0.1192020000 1.4063630000
H -4.6930040000 -0.6792910000 0.0955790000
H -4.2065590000 1.0131500000 -0.0625230000
H -1.6476760000 1.7999580000 -0.1646530000
