12
0 2
S -1.7473070000 0.0000010000 -0.6215860000
S -0.5562140000 -0.0000050000 0.9689780000
C 1.2064450000 0.0000020000 0.3484870000
C 1.5197170000 -1.2755490000 -0.4300150000
H 0.9177160000 -1.3277280000 -1.3401460000
H 1.3219870000 -2.1696150000 0.1648390000
H 2.5751300000 -1.2822230000 -0.7188790000
C 1.5197060000 1.2755550000 -0.4300150000
H 1.7514990000 0.0000040000 1.2993610000
H 0.9177050000 1.3277290000 -1.3401460000
H 2.5751190000 1.2822380000 -0.7188790000
H 1.3219700000 2.1696190000 0.1648390000
