20
0 1
C -0.9019590000 2.1816590000 0.0703560000
C 0.4231180000 2.5397800000 0.0746460000
C -1.2959440000 0.8207020000 0.0229930000
C -0.3026450000 -0.2178730000 0.0009580000
C 1.0601210000 0.2143000000 0.0124710000
C 1.4139890000 1.5432410000 0.0346460000
H 0.7154010000 3.5820680000 0.1089540000
N 2.1896110000 -0.7435510000 0.0102110000
O 3.2485130000 -0.3635420000 -0.4723310000
O 2.0174630000 -1.8494530000 0.5094080000
H -1.6749060000 2.9421120000 0.0987690000
C -2.6706840000 0.4695930000 -0.0097650000
C -3.0626330000 -0.8427780000 -0.0730650000
C -2.0874630000 -1.8624480000 -0.1081580000
C -0.7457270000 -1.5663750000 -0.0690720000
H -2.3996260000 -2.8990490000 -0.1639310000
H -0.0182540000 -2.3619480000 -0.0808970000
H -3.4071930000 1.2654760000 0.0110690000
H -4.1152110000 -1.0997130000 -0.0996040000
H 2.4636650000 1.8010640000 0.0214880000
