15
0 1
Si 0.8946670000 1.5369060000 0.0882170000
Si -1.2551110000 1.0627660000 -0.7485740000
C 1.7638250000 -0.1304130000 0.4968010000
O 2.3335680000 -0.5092830000 1.4461600000
H 0.8990120000 2.3400230000 1.3284550000
H 1.7656040000 2.1622970000 -0.9309370000
Cl 1.6161180000 -1.2847650000 -1.0300290000
C -1.9257850000 -0.3297820000 0.4331110000
H -1.2547920000 0.6942200000 -2.1828640000
H -2.1261970000 2.2525460000 -0.5683590000
O -1.4251930000 -0.3766950000 1.5392090000
C -3.0227650000 -1.2739380000 0.0017100000
H -2.6722280000 -1.8738890000 -0.8450220000
H -3.8939020000 -0.7091530000 -0.3470940000
H -3.3039480000 -1.9278180000 0.8286380000
