21
0 1
C 2.2938960000 1.2285920000 -0.0336480000
C 1.5588120000 0.0500160000 0.6251420000
C 2.3750580000 -1.1652810000 0.1765460000
N 3.3800470000 -0.7003490000 -0.6621830000
N 3.4575110000 0.7176750000 -0.6002600000
H 3.7536120000 1.1617290000 -1.4622040000
H 4.2706850000 -1.1796700000 -0.6006130000
C 0.0565160000 0.0081780000 0.3653390000
O 2.2449660000 -2.3216070000 0.4986790000
O 1.9721760000 2.3893560000 -0.0877050000
H 1.7248250000 0.1301920000 1.7081620000
C -0.5854490000 -1.1694130000 -0.0254380000
C -1.9625480000 -1.1931940000 -0.2345850000
C -2.7003970000 -0.0319230000 -0.0453520000
C -2.0842250000 1.1493640000 0.3531770000
C -0.7089900000 1.1635800000 0.5603840000
H -0.2251260000 2.0858800000 0.8526380000
H -2.6715730000 2.0464640000 0.4998330000
H -0.0186970000 -2.0825020000 -0.1487690000
H -2.4554310000 -2.1077910000 -0.5375930000
Cl -4.4373160000 -0.0563000000 -0.3065610000
