18
0 1
B 0.5504590000 -1.1812060000 -0.5283720000
B -0.5994690000 -1.1479870000 0.5698190000
B -1.7898220000 0.0156490000 0.1328880000
O -1.5011180000 1.3378560000 -0.0042180000
C -3.2769530000 -0.4469410000 -0.1238020000
H -3.7599570000 -0.6812950000 0.8334750000
H -3.3362840000 -1.3630350000 -0.7214440000
H -3.8657110000 0.3324770000 -0.6171310000
B 1.7642330000 -0.0508010000 -0.1490420000
O 1.3821120000 1.2704580000 -0.0389390000
C 3.2606320000 -0.4747210000 0.1109860000
H 3.3381230000 -1.4185960000 0.6592850000
H 3.8477990000 0.2788960000 0.6509530000
H 3.7536500000 -0.6478760000 -0.8545370000
H -0.5575370000 1.5387130000 0.0887320000
H 2.1041680000 1.8704440000 0.1835890000
H -0.6882390000 -1.6620700000 1.6433760000
H 0.5869510000 -1.7624690000 -1.5706120000
