21
0 1
C -1.9253090000 1.2163750000 0.2044690000
C -0.6059300000 0.8232510000 0.3860560000
C -2.9100660000 0.2787670000 -0.1437610000
C -2.5229010000 -1.0595950000 -0.3088140000
C -1.1996910000 -1.4394050000 -0.1224100000
C -0.2038840000 -0.5150330000 0.2332890000
H -0.9390130000 -2.4842860000 -0.2606080000
H -2.2012340000 2.2598430000 0.3252840000
H 0.1296450000 1.5778960000 0.6445530000
B 2.9121300000 0.3256650000 -0.1500270000
O 2.7267560000 1.6270020000 0.2397770000
O 3.9449980000 -0.0839750000 -0.9451640000
N -4.2233820000 0.6780850000 -0.3838970000
H -4.5046630000 1.5357410000 0.0676440000
H -4.9199120000 -0.0467230000 -0.2939210000
H -3.2657030000 -1.8003610000 -0.5896070000
H 3.3743820000 2.2602170000 -0.0936170000
H 4.5569400000 0.6091720000 -1.2223700000
Si 1.5722030000 -1.0574330000 0.5146480000
H 1.8226020000 -1.2879900000 1.9664150000
H 1.7717940000 -2.3647340000 -0.1613040000
