8
0 1
F 1.6205140000 -0.7640110000 0.0000210000
F 0.6805270000 1.2902370000 0.0000030000
B 0.5133840000 -0.0295490000 -0.0000330000
C -0.8889030000 -0.6710160000 -0.0000060000
C -2.0030690000 0.0686170000 -0.0000040000
H -0.9714380000 -1.7548890000 0.0000120000
H -1.9577950000 1.1534530000 -0.0000210000
H -2.9952300000 -0.3724620000 0.0000130000
