8
0 1
S -1.3110480000 -0.3843820000 -0.5503520000
S 0.4374850000 -0.7946870000 0.4932120000
S 1.9129110000 0.5788190000 -0.1238610000
H 2.3492610000 -0.0927860000 -1.2073720000
C -2.0539960000 0.9886380000 0.3999540000
H -3.0275090000 1.1774820000 -0.0585520000
H -1.4377800000 1.8835940000 0.3201040000
H -2.1895590000 0.7038810000 1.4421100000
