11
0 1
Si -1.6680310000 0.0201000000 -0.0000030000
N 0.0119140000 -0.4402060000 0.0000020000
C 0.9944390000 0.3583330000 -0.0000010000
C 2.4240620000 -0.0997590000 0.0000060000
H 2.9463590000 0.2951690000 -0.8787480000
H 2.4756850000 -1.1882590000 0.0000120000
H 2.9463540000 0.2951800000 0.8787570000
H 0.8659510000 1.4571710000 -0.0000070000
H -2.3050200000 -0.5540220000 1.2052990000
H -2.3050160000 -0.5540360000 -1.2053010000
H -1.8662900000 1.4973900000 -0.0000120000
