20
0 1
C -0.1414760000 -0.1495720000 -0.0987020000
C -1.0369040000 -1.1729420000 -0.4511640000
C -2.4150370000 -0.9827170000 -0.3774180000
C -2.9292750000 0.2373510000 0.0568420000
C -2.0595850000 1.2646540000 0.4178910000
C -0.6824540000 1.0699760000 0.3441570000
B 2.2042140000 -0.6456110000 1.7746660000
H -3.0873090000 -1.7849910000 -0.6617680000
H -4.0017810000 0.3870870000 0.1135630000
H -2.4539650000 2.2162910000 0.7573760000
H -0.0233660000 1.8836620000 0.6314780000
H -0.6527260000 -2.1271990000 -0.7969290000
Si 1.7319690000 -0.4233610000 -0.1691690000
C 2.6029690000 1.0174630000 -1.0206190000
H 2.4287430000 1.9571550000 -0.4892880000
H 2.2482060000 1.1363950000 -2.0479470000
H 3.6840170000 0.8525100000 -1.0542940000
H 2.3935660000 0.3057910000 2.4717300000
H 2.2113940000 -1.7138710000 2.3052030000
H 1.9551560000 -1.6629940000 -0.9600040000
