7
0 1
H -1.7154500000 -0.5508140000 1.0311470000
H -1.7154540000 -0.5507920000 -1.0311400000
B -1.2491250000 -0.1840490000 0.0000060000
C 0.0878000000 0.6600780000 0.0000100000
F 0.9455370000 -0.4913990000 -0.0000150000
H 0.3199560000 1.2419730000 0.8932260000
H 0.3199420000 1.2420030000 -0.8931890000
