12
0 1
C -0.0000000000 0.6990730000 -0.0257720000
C 0.0000000000 1.3917440000 1.1839080000
C 0.0000000000 0.6965460000 2.3876230000
C -0.0000000000 -0.6965460000 2.3876230000
C -0.0000000000 -1.3917440000 1.1839080000
C -0.0000000000 -0.6990730000 -0.0257720000
Cl -0.0000000000 1.6082460000 -1.5154480000
H 0.0000000000 1.2454860000 3.3215480000
H -0.0000000000 -1.2454860000 3.3215480000
H 0.0000000000 2.4738910000 1.1665120000
H -0.0000000000 -2.4738910000 1.1665120000
Cl -0.0000000000 -1.6082460000 -1.5154480000
