16
0 1
C 1.6085590000 -0.2135130000 -0.2707110000
O 1.0801820000 -0.9262480000 -1.0972460000
N 0.9659370000 0.9032290000 0.2494620000
C -1.5372370000 -0.2921700000 0.3575950000
C 2.9955780000 -0.4735050000 0.2851310000
C -2.7016170000 -0.7119100000 -0.5102080000
O -1.1810140000 -0.8970580000 1.3372460000
H 3.5307660000 -1.1305020000 -0.3977030000
H 2.9015100000 -0.9759660000 1.2524490000
H 3.5628620000 0.4484800000 0.4327880000
H -3.3031090000 0.1477400000 -0.8205760000
H -3.3205310000 -1.4333960000 0.0243390000
H -2.2979860000 -1.1792980000 -1.4139080000
P -0.6673220000 1.3323460000 -0.0924240000
H 1.4467120000 1.4319730000 0.9615000000
H -0.6569990000 1.1162100000 -1.4896010000
