7
0 1
H 1.3734470000 -1.3870660000 0.0002390000
H 2.3134380000 0.4514470000 0.0002270000
B 1.3138950000 -0.1949010000 -0.0003270000
C -0.1001380000 0.4714140000 0.0000160000
N -1.2059420000 -0.1840790000 0.0001350000
H -1.0047370000 -1.1914270000 -0.0000050000
H -0.2091990000 1.5616140000 0.0001350000
