14
0 1
Si -2.9869650000 0.1875150000 -0.0400900000
C -1.2945680000 -0.6439630000 0.1522820000
P 1.2505280000 0.0106790000 0.0966050000
O 1.5786670000 -0.9844870000 -1.1097890000
O 1.9609880000 1.3627280000 -0.3608580000
H 2.1439470000 1.9369370000 0.3919520000
O 1.6065350000 -0.4761720000 1.4313490000
O -0.2778190000 0.3486890000 -0.1687350000
H -3.0961040000 1.3259080000 0.8975290000
H -4.0249340000 -0.8216430000 0.2774530000
H -3.1621890000 0.6612410000 -1.4296600000
H 2.3496010000 -1.5314880000 -0.9187460000
H -1.1908910000 -1.4940650000 -0.5291970000
H -1.1393940000 -1.0045830000 1.1734240000
