14
0 1
C 0.6465380000 0.8293080000 -0.0867590000
O -0.2096670000 -0.3219200000 -0.3056070000
N -1.5732030000 -0.1093660000 0.0223680000
O -1.8830350000 0.9841030000 0.4320770000
O -2.2510460000 -1.0800320000 -0.1631750000
C 2.0554980000 0.3802530000 -0.4437580000
H 0.5703290000 1.1379730000 0.9586230000
H 0.3073120000 1.6501620000 -0.7218650000
C 2.6094670000 -0.7132030000 0.4734990000
H 2.6915330000 1.2709780000 -0.3961820000
H 2.0650990000 0.0454440000 -1.4854530000
H 2.6409090000 -0.3761510000 1.5140420000
H 3.6259310000 -0.9858610000 0.1808140000
H 1.9922730000 -1.6123460000 0.4291890000
