12
0 1
Si -0.4049950000 0.0476990000 0.4290490000
N 1.1838420000 -0.8981770000 0.1745070000
O 2.0872070000 -0.2648940000 -0.3402230000
C -1.7246510000 -0.9881430000 -0.4021600000
H -1.6716550000 -2.0249590000 -0.0607480000
H -1.6089390000 -0.9799920000 -1.4894160000
C -0.2760290000 1.7979200000 -0.2098630000
H -0.1630920000 1.8137110000 -1.2969590000
H 0.5901000000 2.3036190000 0.2237570000
H -1.1725150000 2.3684010000 0.0500860000
H -2.7208150000 -0.6036110000 -0.1649240000
H -0.5636260000 0.0027680000 1.9039040000
