16
0 1
C 1.2369330000 -0.3060550000 0.4781510000
B -1.8523250000 0.2937580000 -0.0168370000
O -3.1595760000 -0.0822980000 -0.0138130000
O -1.5622530000 1.6329380000 -0.0390630000
C 2.2651420000 -0.0751390000 -0.3485950000
C 3.5585400000 0.5928820000 0.0186700000
H 2.1902230000 -0.4019340000 -1.3862570000
H 3.5728550000 0.8970790000 1.0676640000
H 3.7338460000 1.4792950000 -0.6015390000
H 4.4055870000 -0.0800310000 -0.1563090000
H -3.7570550000 0.6768690000 -0.0351580000
H -0.6162370000 1.8087490000 -0.0374890000
Si -0.3790860000 -1.1163340000 -0.0190760000
H -0.2040640000 -1.6796600000 -1.3845780000
H -0.6920570000 -2.2373020000 0.9037880000
H 1.3466820000 0.0215760000 1.5147730000
