16
0 1
S -0.6290320000 1.7903310000 0.0438310000
O 0.8478180000 1.3002490000 -0.6146330000
C 1.6448700000 0.5197270000 0.1714210000
C -1.5268660000 0.2754520000 -0.2539250000
O -1.1017070000 -0.7324920000 -0.7071310000
O 1.4259280000 0.1183420000 1.2633950000
C 3.7765360000 -0.4680570000 -0.0578980000
C -3.7781760000 -0.4637470000 0.0652660000
F -3.9612330000 -0.8422160000 -1.1969240000
F -4.9031900000 0.0616170000 0.5317900000
F -3.4532630000 -1.5258420000 0.7958350000
F 4.2805750000 0.0703630000 1.0509780000
F 4.7222330000 -0.5140290000 -0.9868150000
F 3.3635110000 -1.7036560000 0.2079940000
O -2.8147650000 0.5341220000 0.1608440000
O 2.7588050000 0.3120690000 -0.5870020000
