22
0 2
Si -2.6273620000 -0.4996530000 0.2039470000
C -0.8657640000 -0.8907510000 -0.3782560000
C 0.2333910000 0.0059300000 0.2308650000
H -0.8391720000 -0.8194720000 -1.4725820000
H -0.6579000000 -1.9408830000 -0.1406140000
C -3.1839400000 1.2418840000 -0.2741640000
H -2.5410430000 2.0005590000 0.1865860000
H -4.2083790000 1.4265430000 0.0589020000
H -3.1511480000 1.3836670000 -1.3577430000
C 1.6468730000 -0.3591910000 -0.2445350000
H 0.1950960000 -0.0593590000 1.3249000000
H 0.0347690000 1.0553240000 -0.0178990000
C 2.7437300000 0.5281950000 0.3554400000
H 1.6863620000 -0.2951990000 -1.3396000000
H 1.8506900000 -1.4081040000 0.0062350000
C 4.1506150000 0.1570790000 -0.1225750000
H 2.7011270000 0.4640290000 1.4494490000
H 2.5376740000 1.5758560000 0.1045820000
H 4.3997690000 -0.8745570000 0.1448470000
H 4.9085040000 0.8074140000 0.3227100000
H 4.2349160000 0.2453200000 -1.2102490000
H -2.7176240000 -0.6648760000 1.6845710000
