7
0 1
H 2.3022380000 -0.5205820000 0.5640660000
H 1.3373350000 -1.2656540000 -1.1158600000
B 1.3184770000 -0.6903640000 -0.0788370000
C -0.0414990000 -0.0332290000 0.3961490000
F 0.0732880000 1.2284910000 -0.1991420000
F -1.1574670000 -0.6386230000 -0.1221600000
H -0.2253510000 0.1286080000 1.4608090000
