12
0 1
Si -1.7785120000 -0.2681910000 -0.0000010000
C 0.0554590000 0.1548790000 0.0000000000
N 0.8296980000 -0.8666840000 -0.0000000000
O 2.1892380000 -0.4982010000 0.0000010000
H 2.6324410000 -1.3527990000 -0.0000000000
C 0.5545010000 1.5792790000 0.0000020000
H -0.2681070000 2.2960270000 0.0000020000
H 1.1812190000 1.7594390000 -0.8781200000
H 1.1812180000 1.7594380000 0.8781250000
H -1.9744080000 -1.7307910000 -0.0000040000
H -2.4173700000 0.3354090000 -1.1951700000
H -2.4173710000 0.3354040000 1.1951700000
