17
0 1
P -0.5853370000 1.1172810000 -0.2331730000
N -1.2604300000 -0.4808670000 0.2674620000
O -2.5289780000 -0.1574690000 0.8475150000
O -1.5130730000 -1.2127120000 -0.9238810000
C 1.1507360000 0.5589820000 -0.5707230000
C 1.9024040000 -0.1331670000 0.5730420000
H 1.6863210000 1.4565120000 -0.9050120000
H 1.0851040000 -0.0980360000 -1.4447720000
C 3.2944990000 -0.6197220000 0.1569070000
H 1.3042600000 -0.9747950000 0.9306210000
H 1.9927150000 0.5626100000 1.4148130000
H 3.2310480000 -1.3465790000 -0.6584960000
H 3.8086410000 -1.1025630000 0.9925250000
H 3.9219120000 0.2094080000 -0.1854020000
H -2.6592310000 -0.8680720000 1.4878910000
H -2.1324550000 -0.6734330000 -1.4481240000
H -0.3846660000 1.5666850000 1.0968890000
