12
0 2
P -1.4298240000 -0.1292320000 -0.1035220000
C 0.3771230000 0.0130700000 0.3852250000
C 1.1475290000 -1.2312180000 -0.0804640000
H 1.1438290000 -1.3108830000 -1.1722010000
H 0.7135480000 -2.1502220000 0.3219020000
C 1.0202050000 1.3081570000 -0.1398220000
H 2.1913140000 -1.1823140000 0.2453070000
H 0.3913610000 0.0429580000 1.4823110000
H 2.0710910000 1.3613300000 0.1650870000
H 0.9892570000 1.3487670000 -1.2327750000
H 0.5129690000 2.1965630000 0.2435650000
H -1.8351500000 1.0922270000 0.5100020000
