21
0 1
C 1.5577150000 2.2808200000 0.5727820000
C 0.2113510000 2.1850280000 0.2217930000
C 2.3960350000 1.1791630000 0.4434840000
C 1.8523670000 -0.0056760000 -0.0386430000
C 0.5128500000 -0.1178000000 -0.3936110000
C -0.3394020000 0.9895740000 -0.2701150000
H 0.1631100000 -1.0708850000 -0.7720890000
H 1.9560020000 3.2166290000 0.9469820000
H -0.4220350000 3.0590600000 0.3296710000
B -3.0344970000 -0.6845270000 0.2933340000
O -2.3804500000 -1.4268360000 1.2368090000
O -4.3332600000 -0.9765530000 0.0218440000
H 3.4443060000 1.2182810000 0.7041790000
N 2.7319850000 -1.1910860000 -0.1779820000
O 3.9149280000 -1.0533620000 0.0996090000
O 2.2194250000 -2.2345970000 -0.5593090000
H -4.6659130000 -1.7111380000 0.5544920000
H -1.4685860000 -1.1604190000 1.3859010000
Si -2.1709950000 0.8487930000 -0.7392060000
H -2.7994930000 2.1557960000 -0.4226940000
H -2.2754990000 0.6339540000 -2.2041110000
