14
0 2
C 2.3545680000 -0.1221020000 -0.1390250000
C 0.9172600000 -0.3433190000 0.3378070000
H 2.7366560000 0.8517300000 0.1833950000
H 2.4170810000 -0.1564380000 -1.2310350000
H 3.0262980000 -0.8890320000 0.2555970000
C -0.0639790000 0.7089320000 -0.1872180000
H 0.8906800000 -0.3452780000 1.4348720000
H 0.5663330000 -1.3300480000 0.0196940000
C -1.5165040000 0.4160540000 0.1987300000
H -0.0030350000 0.7588600000 -1.2807700000
H 0.2066390000 1.7040200000 0.1880230000
O -2.0202840000 -0.7703330000 -0.2552040000
H -2.1993010000 1.2361800000 -0.0940920000
H -1.6271510000 0.3752850000 1.3041790000
