16
0 1
C -3.1430750000 -0.0922070000 0.0006340000
C -2.3856660000 -1.2206250000 -0.3053700000
C -0.9973360000 -1.1515030000 -0.2958170000
C -2.5030220000 1.1098450000 0.3052160000
C -1.1178130000 1.1863940000 0.2965060000
C -0.3375260000 0.0552530000 -0.0017740000
H -4.2257120000 -0.1482260000 0.0024920000
H -2.8755460000 -2.1553700000 -0.5522540000
H -0.4251020000 -2.0354030000 -0.5538780000
H -3.0877960000 1.9892800000 0.5494380000
H -0.6162180000 2.1173320000 0.5274500000
C 1.1381710000 0.1413510000 -0.0019270000
P 2.0796880000 -1.4460700000 0.1449230000
S 1.9639460000 1.5386020000 -0.2645480000
H 1.4719820000 -1.9532840000 1.3212540000
H 3.2175360000 -0.9119590000 0.7796240000
