13
0 2
S 0.9273210000 0.1030940000 -0.2622550000
O 2.0846300000 -0.7985670000 -0.2941760000
O 0.9989900000 1.4154460000 0.3914220000
C -0.4356900000 -0.8455530000 0.5877580000
C -1.7453800000 -0.0706360000 0.6236280000
H -0.0183620000 -1.0367480000 1.5793800000
H -0.4954820000 -1.7833070000 0.0329180000
C -2.3779170000 0.1450750000 -0.7536600000
H -1.5756720000 0.8883660000 1.1195160000
H -2.4343210000 -0.6351440000 1.2625990000
H -1.7296600000 0.7424110000 -1.4007880000
H -3.3292740000 0.6738160000 -0.6649170000
H -2.5694040000 -0.8072480000 -1.2569530000
