16
0 1
C -1.8621410000 -0.8232020000 0.0630750000
C -1.8956590000 0.4805700000 -0.7471300000
P -0.1294280000 -1.5079790000 0.2649860000
H -2.4588170000 -1.6052140000 -0.4150470000
H -2.2868720000 -0.6794610000 1.0616860000
C 0.8132000000 0.0659110000 0.2224450000
C 0.0508840000 1.2182000000 0.8235330000
C -1.1599910000 1.6482210000 -0.0551980000
H 0.7181010000 2.0647510000 0.9902740000
H -0.3257120000 0.8967020000 1.8036900000
H -0.8097190000 2.3508270000 -0.8153400000
H -1.8524520000 2.2002560000 0.5871210000
H -2.9325700000 0.7751090000 -0.9400310000
H -1.4426700000 0.2901880000 -1.7250580000
S 2.3465510000 0.1679760000 -0.3307100000
H 0.1095600000 -1.8992980000 -1.0710780000
