8
0 1
Si -0.4503800000 0.0000000000 -0.0000000000
C 1.4753840000 0.0000060000 -0.0000140000
Cl -1.0889460000 -1.7342070000 -0.8632610000
Cl -1.0889670000 1.6147200000 -1.0702090000
Cl -1.0889090000 0.1194770000 1.9335090000
F 1.9625690000 -1.0485630000 0.6955200000
F 1.9625630000 1.1266510000 0.5602950000
F 1.9625350000 -0.0780720000 -1.2558780000
