15
0 1
C 0.0958860000 -0.2158740000 -0.0570730000
C -0.3942570000 1.0889590000 -0.1326310000
C -1.7708300000 1.2983250000 -0.0712130000
N -2.6712490000 0.3195880000 0.0512470000
C -2.1953650000 -0.9292070000 0.1158840000
C -0.8424480000 -1.2468870000 0.0647090000
H 0.2875350000 1.9251550000 -0.2297310000
H -2.1690900000 2.3085620000 -0.1225790000
H -2.9366350000 -1.7175970000 0.2170440000
H -0.5328450000 -2.2854870000 0.1274290000
N 2.6206040000 0.8424360000 0.2675410000
P 1.8868830000 -0.6057770000 -0.2482330000
H 1.9556450000 -1.4337050000 0.9079830000
H 3.5064830000 1.0573320000 -0.1631950000
H 2.5822680000 1.1263350000 1.2369730000
