18
0 1
F -2.1803570000 1.8437460000 -0.0298290000
N -3.3142700000 -0.6192980000 -0.0611050000
H -3.7055710000 -1.4737210000 0.3033150000
H -3.8330470000 0.2082940000 0.1903990000
B 2.4369440000 0.0842020000 0.0036170000
O 2.9062530000 1.3668810000 0.0725270000
H 3.8684590000 1.3933840000 0.0549890000
C -1.3395480000 0.7695440000 -0.0196770000
O 3.3711900000 -0.9213170000 -0.0631770000
H 2.9955080000 -1.8008970000 -0.1428660000
C -1.9372420000 -0.4992370000 -0.0000960000
C -1.0712970000 -1.6016350000 0.0260590000
H -1.4927560000 -2.6014670000 0.0404080000
C 0.3063430000 -1.4194180000 0.0276370000
H 0.9287210000 -2.3101360000 0.0554310000
C 0.8940980000 -0.1459740000 0.0034920000
C 0.0218970000 0.9586050000 -0.0161260000
H 0.4120140000 1.9690890000 -0.0261040000
