15
0 1
B 2.5187390000 0.2681360000 -0.3499320000
N 1.4126770000 -0.3170370000 0.2492840000
C -2.3938730000 0.1970750000 -0.0733330000
C 0.0971770000 0.2808750000 0.4609960000
C -1.0165900000 -0.4236180000 -0.3219230000
H 0.1615440000 1.3293070000 0.1600090000
H -0.1461910000 0.2678860000 1.5314190000
H -1.0347030000 -1.4847490000 -0.0442540000
H -0.7714470000 -0.3870590000 -1.3884180000
H -2.4140630000 1.2492950000 -0.3729940000
H -2.6678000000 0.1487220000 0.9851590000
H -3.1698530000 -0.3230030000 -0.6401290000
H 3.5217350000 -0.3692630000 -0.4567250000
H 2.4400600000 1.3933840000 -0.7415400000
H 1.4779960000 -1.2719280000 0.5777020000
