7
0 2
Si -0.0350830000 1.2179590000 -0.0000000000
Si -0.0350830000 -1.1270230000 0.0000000000
H 0.5699330000 1.8252760000 1.2129860000
H 0.5699330000 1.8252760000 -1.2129860000
H -0.7465230000 -1.6116900000 1.2063970000
H 1.3354950000 -1.7002790000 0.0000000000
H -0.7465230000 -1.6116900000 -1.2063970000
