21
0 1
C 3.1464220000 -0.0352190000 0.0000130000
C 1.7380920000 0.5606480000 0.0000170000
H 3.8918590000 0.7650550000 0.0000330000
H 3.3146150000 -0.6547050000 -0.8842170000
H 3.3146050000 -0.6547380000 0.8842220000
S 0.5087700000 -0.8000210000 -0.0000160000
H 1.5934900000 1.1822870000 -0.8861240000
H 1.5934800000 1.1822540000 0.8861780000
C -1.1440630000 0.0691430000 -0.0000030000
C -2.1687140000 -1.0763630000 -0.0000160000
H -2.0583440000 -1.7067800000 -0.8858310000
H -3.1824270000 -0.6633180000 -0.0000100000
C -1.3147130000 0.9237380000 1.2631220000
H -1.1905370000 0.3198750000 2.1644130000
H -2.3167580000 1.3670860000 1.2804120000
H -0.5942520000 1.7443790000 1.2987680000
C -1.3147150000 0.9237690000 -1.2631070000
H -2.3167610000 1.3671180000 -1.2803840000
H -1.1905430000 0.3199270000 -2.1644140000
H -0.5942550000 1.7444100000 -1.2987360000
H -2.0583430000 -1.7068020000 0.8857840000
