15
0 1
C 0.2166540000 -0.8815100000 -0.0000000000
C 0.7817080000 -0.1279250000 1.2024770000
C 0.7817080000 -0.1279250000 -1.2024770000
C 0.7817080000 1.3595680000 0.7790700000
H 1.8081490000 -0.4829690000 1.3536210000
H 0.2294960000 -0.3226390000 2.1220650000
C 0.7817080000 1.3595680000 -0.7790700000
H 1.6436180000 1.8875640000 1.1917050000
H -0.1109280000 1.8602260000 1.1578530000
H 0.2294960000 -0.3226390000 -2.1220650000
H 1.8081490000 -0.4829690000 -1.3536210000
H -0.1109280000 1.8602260000 -1.1578530000
H 1.6436180000 1.8875640000 -1.1917050000
Cl -1.6252760000 -0.7898000000 0.0000000000
H 0.4281140000 -1.9484190000 -0.0000000000
