11
0 2
H -1.6066710000 1.8781600000 -0.0000000000
N -0.0396430000 0.2169740000 0.0000000000
B -0.4673700000 1.5260720000 0.0000000000
C -0.9484570000 -0.9339920000 -0.0000010000
H -0.7840300000 -1.5572030000 -0.8870030000
H -1.9805980000 -0.5873530000 -0.0000010000
H -0.7840310000 -1.5572030000 0.8870020000
C 1.3734360000 -0.1585480000 0.0000000000
H 1.9876920000 0.7405900000 0.0000010000
H 1.6160570000 -0.7554630000 -0.8872540000
H 1.6160560000 -0.7554640000 0.8872550000
