15
0 1
F -1.9613850000 0.9477300000 -0.7088100000
B -1.2742950000 -0.0355070000 -0.1550290000
F -1.8949520000 -1.1976890000 0.0026290000
C 0.2363990000 0.1225680000 0.3156480000
O 0.9088130000 -0.3614010000 -0.8519390000
O 0.5150250000 -0.6914700000 1.4471700000
C 2.3376680000 -0.3577440000 -0.8199000000
H 2.7424040000 0.6523820000 -0.9434600000
H 2.6608330000 -0.9723660000 -1.6595860000
H 2.7096240000 -0.7908130000 0.1123600000
C 0.6311310000 1.5431990000 0.7009250000
H 0.5186620000 2.2135540000 -0.1524930000
H 1.6645710000 1.5704880000 1.0511170000
H -0.0042520000 1.9009350000 1.5134830000
H 0.1647630000 -1.5721810000 1.2674820000
