24
0 1
C -1.8915790000 -1.2625490000 -0.2230680000
C -1.2848910000 -0.2956000000 0.5858290000
C -3.0404710000 -0.9301370000 -0.9305280000
C -3.5510880000 0.3593750000 -0.8126700000
C -2.8796850000 1.2552470000 0.0137200000
N -1.7768030000 0.9455410000 0.7014890000
H -4.4451350000 0.6647010000 -1.3428460000
H -3.2452370000 2.2714110000 0.1356570000
H -1.4648500000 -2.2564710000 -0.2936180000
H -3.5297510000 -1.6641490000 -1.5612990000
C -0.0171140000 -0.5987570000 1.3608230000
C 1.2475630000 -0.2354410000 0.5976850000
H -0.0574440000 -0.0314410000 2.2941180000
H 0.0110380000 -1.6605730000 1.6183870000
C 2.1413460000 -1.2239120000 0.1791230000
C 1.5378460000 1.1011930000 0.2990490000
C 3.3006860000 -0.8903840000 -0.5204850000
C 3.5803960000 0.4414790000 -0.8117290000
C 2.6938490000 1.4361450000 -0.3992460000
H 1.9330360000 -2.2647240000 0.4068450000
H 3.9839830000 -1.6717660000 -0.8348340000
H 0.8438680000 1.8734790000 0.6111590000
H 4.4817810000 0.7041940000 -1.3540450000
H 2.9051880000 2.4765890000 -0.6209740000
