24
0 2
C 1.4363730000 -0.6658500000 0.0000000000
C 0.1310900000 -1.4265480000 -0.0000010000
C -0.9149540000 -0.6088710000 -0.0000010000
C -0.5596290000 0.8629050000 0.0000000000
N 0.9260100000 0.7345000000 0.0000020000
C 2.2759660000 -0.9114230000 1.2651660000
H 1.6750320000 -0.7702570000 2.1655830000
H 3.1085590000 -0.2055940000 1.2875160000
H 2.6763410000 -1.9284360000 1.2681270000
C 2.2759660000 -0.9114210000 -1.2651660000
H 1.6750330000 -0.7702520000 -2.1655830000
H 2.6763410000 -1.9284330000 -1.2681280000
H 3.1085590000 -0.2055910000 -1.2875140000
C -1.0185430000 1.6031370000 -1.2658180000
H -0.7252980000 1.0582850000 -2.1652840000
H -0.5497880000 2.5885580000 -1.2863700000
H -2.1035320000 1.7249720000 -1.2678890000
C -1.0185450000 1.6031360000 1.2658190000
H -0.7253010000 1.0582820000 2.1652850000
H -2.1035340000 1.7249710000 1.2678880000
H -0.5497890000 2.5885570000 1.2863720000
O 1.6941140000 1.7434560000 0.0000020000
Cl -2.5841810000 -1.1051420000 -0.0000020000
H 0.0871290000 -2.5071950000 -0.0000010000
