12
0 1
C -0.7687750000 -0.7925020000 0.0000050000
B 0.6112910000 -0.0226400000 0.0000130000
O 0.7306680000 1.3454210000 -0.0000050000
O 1.7670380000 -0.7498330000 -0.0000010000
C -2.0329970000 0.0803160000 -0.0000040000
H -0.7774680000 -1.4645460000 0.8672100000
H -0.7774600000 -1.4645520000 -0.8671960000
H -2.0792160000 0.7255940000 0.8844230000
H -2.9452290000 -0.5217750000 -0.0000070000
H -2.0792070000 0.7255890000 -0.8844350000
H 2.5450410000 -0.1817340000 -0.0000090000
H -0.1139270000 1.8030400000 -0.0000100000
