14
0 1
Si -0.9790950000 -0.9953100000 0.1025490000
C 0.8466930000 -1.0269460000 -0.4295870000
C 1.7469060000 -0.1325670000 0.3765890000
N 2.3639350000 0.9123840000 -0.0014080000
H 1.8679710000 -0.4159110000 1.4279750000
H 2.1976430000 1.0900180000 -0.9977570000
C -1.7515210000 0.7361940000 -0.0578690000
H -1.0902560000 -1.4484710000 1.5106650000
H -1.7362500000 -1.9371470000 -0.7557520000
N -1.1721270000 1.8717700000 -0.0104530000
H -2.8409450000 0.7698390000 -0.2017450000
H -0.1621190000 1.7802210000 0.1323990000
H 0.9112690000 -0.7831220000 -1.4954540000
H 1.1649040000 -2.0702380000 -0.3077970000
