19
0 1
F 2.8676730000 1.6362170000 -0.3617430000
F 1.2742980000 -2.0957030000 -0.1383370000
F 0.4851680000 -1.2069920000 1.7103010000
N -1.6065480000 0.0463690000 0.1511300000
C -3.0677100000 -0.0547710000 0.1272200000
C -1.0454530000 1.3067990000 0.0938170000
O -1.6710180000 2.3414530000 0.1337380000
N 0.3584700000 1.3385800000 0.0125990000
C 1.2096710000 0.2734850000 0.0387240000
N 2.4797790000 0.2881800000 -0.1314990000
C 0.5541560000 -1.0520630000 0.3553140000
C -0.8624710000 -1.1181960000 -0.2284240000
O -0.8040170000 -1.2018560000 -1.6397060000
H -3.4801330000 0.8898670000 0.4705060000
H -3.4293380000 -0.2575300000 -0.8843470000
H -3.3838160000 -0.8569450000 0.7969050000
H 0.7595220000 2.2592880000 -0.1004520000
H -1.3468000000 -1.9989220000 0.2095740000
H -0.3144620000 -1.9976630000 -1.8819550000
