12
0 1
Si -2.2191580000 0.0458660000 0.0195160000
C -0.6203210000 -0.9208870000 -0.3461800000
S 0.8771390000 -0.0616720000 0.1123550000
O 0.6572000000 0.6841920000 1.3299490000
O 0.9552400000 1.0308850000 -1.0980750000
O 1.9962430000 -0.9450630000 -0.0316980000
H -3.3140970000 -0.6586320000 -0.6847230000
H -2.1058700000 1.4233460000 -0.5016620000
H -2.4817830000 0.0576750000 1.4703420000
H 0.9038120000 1.9099850000 -0.6958190000
H -0.5200000000 -1.1676760000 -1.4048680000
H -0.5956060000 -1.8548460000 0.2215040000
