19
0 1
P -0.4192440000 -0.0958180000 1.0807470000
N -0.8807000000 -1.5038760000 -0.0407470000
B -1.1075760000 1.3724970000 -0.0282140000
O -0.0997860000 -2.4273310000 -0.1778470000
O -2.0200520000 -1.4866930000 -0.5246760000
O -0.4903520000 2.5665980000 0.1761340000
O -2.1674890000 1.2378400000 -0.8478800000
C 1.4159460000 -0.0597740000 0.8325030000
C 1.9604550000 0.1773700000 -0.5816220000
H 1.7950480000 -0.9982870000 1.2466610000
H 1.7476680000 0.7355250000 1.5119570000
C 3.4922730000 0.1565430000 -0.6219820000
H 1.5967800000 1.1417590000 -0.9476940000
H 1.5695680000 -0.5926910000 -1.2522410000
H 3.9175930000 0.9305390000 0.0241380000
H 3.8578770000 0.3323370000 -1.6369860000
H 3.8839520000 -0.8093700000 -0.2900280000
H -2.4639030000 0.3109140000 -0.8983530000
H -0.9037480000 3.2830540000 -0.3216000000
