19
0 1
F 3.8624490000 0.5351270000 0.0124690000
N 0.3137590000 -0.9781990000 -0.0308160000
P 2.9461200000 -0.8283250000 -0.0770280000
C 1.2658680000 -0.0702640000 -0.0187760000
C 1.0342410000 1.3279380000 -0.0093580000
H 1.8736130000 2.0111380000 -0.0032600000
C -0.2648580000 1.7672620000 -0.0009130000
H -0.4924480000 2.8285720000 0.0087080000
C -2.6948930000 1.1996450000 0.0134050000
H -2.9535240000 2.2534070000 0.0220650000
C -3.6765590000 0.2387160000 0.0156320000
H -4.7209330000 0.5287020000 0.0259080000
C -3.3337230000 -1.1346640000 0.0042830000
H -4.1209920000 -1.8799960000 0.0057610000
C -2.0175880000 -1.5273380000 -0.0094800000
H -1.7303830000 -2.5716460000 -0.0200960000
C -0.9824020000 -0.5590520000 -0.0111900000
C -1.3267070000 0.8286430000 0.0011560000
H 2.9742460000 -1.1393630000 1.3112820000
