15
0 1
F 1.8616720000 -1.1391950000 0.1452620000
O 0.5935240000 -0.7723960000 -0.4572560000
C 0.1198490000 0.3672210000 0.2728630000
C -1.3207310000 0.5291110000 -0.2327720000
C 0.9993990000 1.5857370000 0.0301800000
H 0.9839880000 1.8655820000 -1.0262700000
H 2.0290970000 1.3712400000 0.3176340000
H 0.6458670000 2.4334720000 0.6231580000
H 0.1093900000 0.0982340000 1.3354550000
C -2.2617550000 -0.6092540000 0.1692760000
H -1.2939900000 0.6391210000 -1.3221850000
H -1.6851880000 1.4815990000 0.1654660000
H -1.9171380000 -1.5649650000 -0.2284830000
H -3.2707530000 -0.4276110000 -0.2088390000
H -2.3250830000 -0.7016300000 1.2574670000
