12
0 1
C -0.3232550000 -0.4952510000 0.7271460000
C 0.9786220000 -0.1035430000 0.0964560000
C 1.8119110000 -1.0467500000 -0.3450470000
Cl -1.7685830000 0.0530150000 -0.2676090000
H -0.4252280000 -1.5733180000 0.8203830000
H -0.4662580000 -0.0230720000 1.6990630000
C 1.2889960000 1.3676690000 0.0292750000
H 1.5603070000 -2.1003390000 -0.2918100000
H 2.7751920000 -0.7947550000 -0.7744540000
H 0.5339360000 1.8971180000 -0.5588720000
H 2.2658730000 1.5461320000 -0.4219940000
H 1.2844370000 1.8142350000 1.0300510000
