14
0 1
C 2.9462770000 -0.7231880000 0.6444350000
C 1.5829820000 -0.8344750000 0.9113930000
N 3.4552310000 0.1203500000 -0.2566430000
C 2.5945620000 0.8921350000 -0.9277320000
C 1.2157290000 0.8597290000 -0.7354130000
C 0.6814670000 -0.0266260000 0.2070370000
H 3.6615300000 -1.3395180000 1.1819800000
H 1.2427220000 -1.5407450000 1.6615450000
H 3.0295560000 1.5728580000 -1.6540700000
H 0.5780090000 1.5218740000 -1.3096280000
Si -1.1439140000 -0.1887250000 0.5396740000
Cl -1.9953630000 -1.5597840000 -0.7570290000
Cl -2.0873070000 1.6327180000 0.2780190000
H -1.4043310000 -0.6601010000 1.9060800000
