16
0 2
S 0.2752860000 -1.4423290000 -0.3924130000
C 1.8010990000 -0.6637300000 0.2888140000
C 1.7446810000 0.7923600000 -0.0152530000
H 2.6566330000 -1.1484880000 -0.1880700000
H 1.8534120000 -0.8767600000 1.3638030000
S 0.1920490000 1.5170500000 -0.1954690000
H 2.6099410000 1.3797900000 -0.2885710000
C -0.8252970000 -0.0340400000 0.0722230000
C -2.0315490000 -0.0049650000 -0.8698640000
H -1.7185180000 0.0561600000 -1.9122100000
H -2.6706060000 0.8530770000 -0.6430190000
H -2.6324930000 -0.9089000000 -0.7356160000
C -1.2626590000 -0.1140550000 1.5393350000
H -0.4058330000 -0.1417300000 2.2138010000
H -1.8566070000 -1.0178650000 1.7003900000
H -1.8709280000 0.7557620000 1.8040650000
