7
0 1
C -0.2355150000 0.3972390000 -0.0000060000
O -1.2330930000 -0.2765930000 -0.0000000000
C 1.1685460000 -0.1477790000 0.0000020000
H -0.3048750000 1.5089350000 0.0000150000
H 1.1557930000 -1.2376110000 -0.0000080000
H 1.7078150000 0.2223210000 0.8788970000
H 1.7078310000 0.2223370000 -0.8788770000
