16
0 1
P 0.0000000000 -1.1387440000 -0.1361370000
C 1.3078820000 0.1270360000 0.0257520000
C 0.7281530000 1.3494120000 -0.0076000000
C -0.7281530000 1.3494120000 -0.0076000000
C -1.3078820000 0.1270360000 0.0257520000
H -1.2991880000 2.2735130000 -0.0320270000
H 1.2991880000 2.2735130000 -0.0320270000
C -2.7780220000 -0.1690550000 0.0378080000
H -3.3590490000 0.7557520000 0.0841280000
H -3.0600470000 -0.7836620000 0.8997480000
H -3.0882730000 -0.7174900000 -0.8576800000
C 2.7780220000 -0.1690550000 0.0378080000
H 3.0882730000 -0.7174900000 -0.8576810000
H 3.0600470000 -0.7836620000 0.8997470000
H 3.3590490000 0.7557520000 0.0841280000
H 0.0000000000 -1.6637880000 1.1822000000
