11
0 1
C 1.5235830000 -0.1788410000 0.5394240000
S 0.0370640000 -1.0794210000 -0.0051470000
N -1.1950750000 0.2756690000 0.0103870000
O -0.8462040000 1.3770980000 0.3802720000
O -2.2974720000 -0.0643790000 -0.3577640000
C 2.2054660000 0.6475530000 -0.5456690000
H 2.1707770000 -0.9817550000 0.9077040000
H 1.2306420000 0.4277250000 1.3972340000
H 2.4934770000 0.0260090000 -1.3958660000
H 3.1079320000 1.1158740000 -0.1416730000
H 1.5447980000 1.4391690000 -0.9003450000
