21
0 1
C 0.9677850000 0.1992170000 -0.3942850000
O 0.3830010000 1.1405160000 -0.8524500000
S 0.0609640000 -1.3051610000 0.1952230000
S -1.8535870000 -0.8784210000 -0.4555640000
C -2.3574600000 0.3510690000 0.7934390000
O -1.6791370000 0.7020300000 1.7130940000
C 2.4432570000 0.1401430000 -0.1966940000
C 3.1580960000 1.3369040000 -0.3427560000
C 4.5363200000 1.3503910000 -0.1741810000
C 5.2135960000 0.1703930000 0.1345130000
C 4.5092250000 -1.0240960000 0.2726850000
C 3.1281420000 -1.0419360000 0.1079060000
H 2.5931020000 -1.9793280000 0.2013550000
H 2.6138910000 2.2406900000 -0.5857210000
H 5.0843160000 2.2790470000 -0.2834010000
H 6.2898150000 0.1814460000 0.2645980000
H 5.0354400000 -1.9425540000 0.5043520000
C -3.7163930000 0.9996450000 0.5522270000
Cl -4.8300530000 0.0836690000 -0.5260410000
H -3.5432940000 1.9720680000 0.0906010000
H -4.2067260000 1.1328270000 1.5140920000
