15
0 1
O 0.8730270000 0.8467430000 -0.0000010000
C 2.2520580000 0.9822090000 0.0000020000
C 0.5998710000 -0.4891790000 -0.0000000000
C 2.8238400000 -0.2423100000 -0.0000010000
C 1.7601150000 -1.2082930000 0.0000030000
H 3.8825040000 -0.4481670000 -0.0000010000
H 2.6189740000 1.9927500000 0.0000040000
H 1.8483340000 -2.2823000000 0.0000050000
B -1.8974970000 0.0030520000 -0.0000010000
O -3.1031280000 -0.6480630000 -0.0000010000
O -1.8555590000 1.3670320000 0.0000000000
H -0.9549430000 1.7099970000 -0.0000000000
H -3.8357120000 -0.0258640000 -0.0000000000
N -0.7301950000 -0.8432330000 -0.0000020000
H -0.8903270000 -1.8393050000 -0.0000030000
