20
0 1
Si 0.0000000000 1.7683810000 -0.0052910000
O 1.3209450000 0.7940400000 -0.1477950000
O -1.3209450000 0.7940400000 -0.1477950000
C -0.0000000000 -1.2680300000 -0.1089680000
C -1.2858140000 -0.5605780000 0.3453070000
C 1.2858140000 -0.5605780000 0.3453070000
C 2.5476790000 -1.2570090000 -0.1392390000
H 2.5585510000 -1.3006070000 -1.2312790000
H 2.6063620000 -2.2755170000 0.2546490000
H 3.4294430000 -0.7036550000 0.1893400000
H 1.2974220000 -0.5242840000 1.4453330000
H -0.0000000000 -1.3365840000 -1.2030140000
H 0.0000000000 -2.2895120000 0.2869600000
C -2.5476790000 -1.2570090000 -0.1392390000
H -1.2974220000 -0.5242840000 1.4453330000
H -2.5585510000 -1.3006070000 -1.2312800000
H -3.4294430000 -0.7036550000 0.1893400000
H -2.6063620000 -2.2755170000 0.2546480000
H -0.0000000000 2.7534430000 -1.0983000000
H 0.0000000000 2.4380260000 1.3180570000
