14
0 1
B 2.3966310000 -0.1158320000 0.0000050000
B 0.8512570000 -0.7405360000 -0.0000050000
N -0.3684670000 -0.0656210000 -0.0000020000
C -1.6667080000 -0.7341370000 -0.0000060000
H -2.2507230000 -0.4542920000 0.8855410000
H -1.5247530000 -1.8130770000 -0.0000120000
H -2.2507230000 -0.4542820000 -0.8855500000
C -0.4840350000 1.3893940000 0.0000060000
H 0.5054720000 1.8467570000 0.0000100000
H -1.0276260000 1.7406550000 0.8857150000
H -1.0276250000 1.7406650000 -0.8856990000
H 0.7969570000 -1.9461240000 -0.0000060000
H 3.0116530000 0.0746860000 -1.0106740000
H 3.0116510000 0.0746610000 1.0106900000
