15
0 1
C 1.2108870000 1.4380130000 0.0000000000
C 1.4737150000 0.0737660000 -0.0000000000
C 0.4401180000 -0.8547620000 -0.0000000000
C -0.8709170000 -0.3904090000 -0.0000000000
C -1.1894810000 0.9734180000 0.0000000000
C -0.1126790000 1.8662330000 0.0000000000
H 0.6470560000 -1.9156050000 -0.0000000000
C -2.6113050000 1.4670800000 0.0000000000
H -3.1553690000 1.1088120000 0.8783640000
H -3.1553680000 1.1088120000 -0.8783640000
H -2.6393660000 2.5575210000 0.0000010000
H -0.3200300000 2.9306340000 0.0000000000
H 2.0252160000 2.1503080000 0.0000000000
Cl -2.1595790000 -1.5863860000 -0.0000000000
Cl 3.1334520000 -0.4948210000 -0.0000000000
