8
0 1
S -0.6720670000 -1.1482850000 -0.0198500000
B 0.7173480000 0.0471510000 -0.0025610000
S 0.6039220000 1.8462590000 -0.0043080000
S 2.3862330000 -0.6810750000 0.0133790000
S -2.4557670000 -0.0284690000 -0.0658240000
H 2.0143050000 -1.9746720000 0.0284970000
H -0.7446810000 1.8917500000 -0.0558220000
H -2.6534900000 0.0322800000 1.2657880000
