23
0 1
B 2.2355680000 0.0001260000 0.1178500000
C 1.8860950000 -0.0003580000 1.6486200000
C -0.3464630000 0.0001540000 -0.5539940000
C 3.7374570000 0.0000170000 -0.3561670000
H 4.2606010000 -0.8700590000 0.0629880000
H 4.2608330000 0.8697750000 0.0633520000
H 3.8891680000 0.0002210000 -1.4391000000
H 1.2574360000 0.8657840000 1.8935300000
H 2.7510880000 -0.0006130000 2.3165430000
H 1.2573530000 -0.8665970000 1.8929790000
C -1.0339060000 -1.1991810000 -0.3309720000
C -1.0340050000 1.1993440000 -0.3304990000
C -2.3572980000 1.2020970000 0.1045820000
C -3.0256030000 -0.0001300000 0.3254170000
C -2.3571990000 -1.2022150000 0.1041080000
H -2.8680290000 -2.1453460000 0.2658600000
H -0.5273000000 -2.1435340000 -0.5066930000
H -2.8682060000 2.1451220000 0.2667060000
H -4.0563320000 -0.0002390000 0.6613750000
H -0.5274760000 2.1438080000 -0.5058480000
C 1.0971580000 0.0003010000 -0.9909500000
H 1.2977740000 0.8653640000 -1.6407280000
H 1.2978400000 -0.8644820000 -1.6410820000
