11
0 1
P -0.6900380000 -0.8046970000 0.1328880000
N 0.7173800000 0.1402010000 -0.3951840000
O 0.8040300000 1.3553290000 0.3506620000
O 1.8506610000 -0.6554360000 -0.0221020000
C -2.0053900000 0.4422820000 -0.2288760000
H -1.7613060000 1.4232010000 0.1766280000
H -2.9363510000 0.0827000000 0.2179890000
H -2.1527960000 0.5126820000 -1.3084830000
H 2.4097940000 -0.6184570000 -0.8068740000
H 1.1565730000 1.9835160000 -0.2917390000
H -0.5921890000 -0.5474220000 1.5302260000
