10
0 1
F -1.7625580000 -0.6730220000 -0.0000450000
F -0.6989260000 1.3118670000 -0.0000420000
B -0.6060770000 -0.0148380000 0.0000660000
C 0.7605090000 -0.7648740000 0.0000350000
C 2.0136600000 0.1225140000 0.0000210000
H 0.7647160000 -1.4419560000 0.8650270000
H 2.0415810000 0.7705960000 -0.8793820000
H 2.9261350000 -0.4785280000 0.0000020000
H 2.0416090000 0.7705840000 0.8794320000
H 0.7646890000 -1.4419450000 -0.8649660000
