12
0 1
F 2.6458810000 0.4206830000 0.0000010000
O 1.7667270000 -0.7096080000 -0.0000040000
C 0.4647790000 -0.2706430000 -0.0000010000
C -0.4840370000 -1.2934590000 0.0000020000
C 0.0619250000 1.0569100000 -0.0000030000
C -1.3113670000 1.2999060000 -0.0000010000
C -1.8213130000 -0.9161930000 0.0000030000
N -2.2490040000 0.3513000000 0.0000020000
H -0.1848520000 -2.3334850000 0.0000040000
H -2.5903330000 -1.6830760000 0.0000060000
H 0.7791680000 1.8630300000 -0.0000050000
H -1.6676290000 2.3260260000 -0.0000020000
