10
0 1
F -1.6024420000 1.0911130000 0.0338320000
S 0.7207070000 0.0001040000 -0.1350090000
O 1.2100860000 1.2625110000 -0.6053960000
N -1.0566440000 0.0001540000 -0.6513760000
C 0.5957580000 -0.0009250000 1.6489190000
H 1.6243260000 -0.0009940000 2.0106180000
H 0.0723710000 0.9017300000 1.9553130000
F -1.6023300000 -1.0912150000 0.0332630000
O 1.2104490000 -1.2616280000 -0.6068280000
H 0.0726130000 -0.9040720000 1.9542810000
