14
0 2
C -0.8087090000 0.0337860000 0.0951230000
C 0.4945290000 -0.6679670000 -0.1497750000
Cl -1.1141920000 1.5981390000 -0.5760390000
Cl -2.1837370000 -0.9226860000 0.4477440000
N 1.6363910000 0.0320520000 0.1207490000
C 2.9111030000 -0.5396420000 -0.2960270000
O 0.4803890000 -1.8024040000 -0.6001070000
H 2.7225830000 -1.3585690000 -0.9852500000
H 3.4671870000 -0.9254720000 0.5661700000
H 3.5165100000 0.2276860000 -0.7875370000
C 1.7108670000 1.2115280000 0.9721260000
H 0.7663560000 1.3777290000 1.4851200000
H 1.9636640000 2.1090670000 0.3981450000
H 2.4839040000 1.0554980000 1.7313030000
