18
0 1
H -0.9237650000 2.9460470000 0.0000160000
H 1.0972930000 3.3159250000 0.0000080000
B 0.1919250000 2.5364070000 -0.0000030000
C 0.5256840000 1.0396210000 -0.0000040000
C -0.4610300000 0.0133610000 -0.0000000000
C -0.0883730000 -1.3355320000 0.0000010000
H -0.8330880000 -2.1194350000 0.0000030000
C 1.2616750000 -1.6806440000 -0.0000010000
C 1.8752790000 0.6320170000 -0.0000060000
H 2.6356710000 1.4055380000 -0.0000090000
C 2.2549010000 -0.7039920000 -0.0000050000
H 3.3014580000 -0.9839460000 -0.0000070000
H 1.5339940000 -2.7308710000 -0.0000000000
O -1.7528740000 0.4196930000 0.0000010000
C -2.7896270000 -0.5514700000 0.0000090000
H -3.7205410000 0.0127190000 0.0000130000
H -2.7493480000 -1.1828650000 0.8943810000
H -2.7493580000 -1.1828700000 -0.8943590000
