23
0 1
C -0.2409130000 -0.0000020000 -0.6071130000
C 0.3811370000 1.2707340000 0.0142440000
C 1.9155780000 1.2681000000 -0.0792460000
C 2.5182460000 0.0000010000 0.5405880000
C 1.9155770000 -1.2681020000 -0.0792390000
C 0.3811360000 -1.2707340000 0.0142510000
B -2.9374400000 0.0000080000 1.3482990000
H 0.0914130000 1.3378310000 1.0719370000
H -0.0183720000 2.1666060000 -0.4732930000
H 2.3219540000 2.1595880000 0.4102410000
H 2.2097550000 1.3296030000 -1.1349690000
H 2.3243550000 0.0000040000 1.6213000000
H 3.6065200000 0.0000000000 0.4206630000
H 2.3219530000 -2.1595870000 0.4102530000
H 2.2097540000 -1.3296110000 -1.1349620000
H -0.0183730000 -2.1666090000 -0.4732800000
H 0.0914130000 -1.3378240000 1.0719450000
Si -2.1374160000 -0.0000020000 -0.5037400000
H 0.0027510000 -0.0000050000 -1.6802000000
H -2.6682460000 -1.1960910000 -1.2207120000
H -2.6682450000 1.1960980000 -1.2206950000
H -4.1247150000 -0.0000450000 1.4680560000
H -2.2954600000 0.0000550000 2.3536710000
