22
0 1
C 0.5890630000 1.4647260000 1.0374830000
C 0.5911900000 2.8529140000 1.0488570000
C 0.0000000000 3.5477950000 -0.0000000000
C -0.5911900000 2.8529140000 -1.0488570000
C -0.5890630000 1.4647260000 -1.0374830000
C 0.0000000000 0.7403400000 -0.0000000000
C 0.0000000000 -0.7403400000 -0.0000000000
C 0.5890630000 -1.4647260000 -1.0374830000
C -0.5890630000 -1.4647260000 1.0374830000
C -0.5911900000 -2.8529140000 1.0488570000
C 0.0000000000 -3.5477950000 0.0000000000
C 0.5911900000 -2.8529140000 -1.0488570000
F 1.1637540000 -3.5217190000 -2.0518600000
F 1.1807810000 -0.8204360000 -2.0490750000
F -1.1637540000 -3.5217190000 2.0518600000
F -0.0000000000 -4.8794680000 0.0000000000
F -1.1807810000 -0.8204360000 2.0490750000
F 1.1807810000 0.8204360000 2.0490750000
F -1.1637540000 3.5217190000 -2.0518600000
F -1.1807810000 0.8204360000 -2.0490750000
F 1.1637540000 3.5217190000 2.0518600000
F 0.0000000000 4.8794680000 0.0000000000
