8
0 1
Cl 1.7807040000 -0.6413140000 0.0003490000
Cl -0.2330410000 1.6177960000 0.0002410000
B 0.0905160000 -0.1216280000 -0.0011880000
C -1.0325400000 -1.1717600000 -0.0004770000
C -2.3390680000 -0.8747420000 -0.0001530000
H -0.7411150000 -2.2197430000 -0.0002450000
H -2.6889190000 0.1525670000 -0.0003630000
H -3.1031770000 -1.6458700000 0.0003040000
