14
0 1
Si -0.0000010000 -0.0000040000 0.3760760000
C -1.4985240000 -0.9711420000 -0.2221140000
H -1.4691110000 -2.0044800000 0.1359260000
H -1.5405300000 -0.9984600000 -1.3156420000
H -2.4297260000 -0.5221530000 0.1358220000
C -0.0917800000 1.7833130000 -0.2221220000
H -0.0944510000 1.8333900000 -1.3156440000
H 0.7626520000 2.3652690000 0.1358180000
H -1.0013840000 2.2744950000 0.1359460000
C 1.5903050000 -0.8121760000 -0.2221210000
H 0.0000030000 0.0000140000 1.8647590000
H 1.6349090000 -0.8350000000 -1.3156480000
H 1.6671860000 -1.8430710000 0.1359200000
H 2.4704670000 -0.2699180000 0.1358180000
