11
0 1
C -0.6835130000 0.7336520000 0.0000050000
B 0.8783440000 0.6099100000 0.0000110000
O 1.4546720000 -0.6207160000 -0.0000060000
C -1.4876270000 -0.5741610000 -0.0000030000
H -0.9619320000 1.3571270000 -0.8632350000
H -0.9619360000 1.3571190000 0.8632480000
H -1.2546200000 -1.1819570000 -0.8781580000
H -2.5651980000 -0.3869400000 -0.0000040000
H -1.2546230000 -1.1819650000 0.8781490000
H 2.4155900000 -0.5897170000 -0.0000150000
H 1.5804630000 1.5855670000 -0.0000030000
