10
0 1
Si -1.8600440000 0.5652200000 0.0851290000
S -0.4061660000 -0.9706720000 -0.3909350000
S 1.2365260000 -0.1819440000 0.6700220000
C 2.0868460000 0.8057830000 -0.6093950000
H 2.9786560000 1.2078960000 -0.1219510000
H 1.4612770000 1.6286040000 -0.9533480000
H 2.3848410000 0.1754150000 -1.4460000000
H -3.0976100000 0.1799980000 -0.6320280000
H -1.3893740000 1.8849600000 -0.3883960000
H -2.1040040000 0.6172100000 1.5408900000
