11
0 1
Si 1.9047790000 -0.3969950000 -0.0499610000
Si -0.1212690000 0.8150450000 0.0045230000
C -1.5869600000 -0.3048780000 0.4701980000
H -0.4231060000 1.3903440000 -1.3310190000
H -0.0044910000 1.9135560000 0.9969050000
H 2.1565890000 -1.0232470000 1.2704230000
H 3.0336560000 0.5097890000 -0.3697280000
N -2.5660010000 -0.6320560000 -0.2787930000
H 1.8382360000 -1.4619270000 -1.0787700000
H -2.4843520000 -0.1960160000 -1.2035090000
H -1.6019040000 -0.7315370000 1.4821910000
