14
0 1
C 0.7264880000 1.2074270000 -0.0003840000
C -0.6646070000 1.2046790000 -0.0053060000
C -1.3836770000 -0.0000000000 -0.0062510000
C 1.4057800000 0.0000000000 0.0018250000
C 0.7264890000 -1.2074270000 -0.0003840000
C -0.6646070000 -1.2046790000 -0.0053090000
H 1.2849250000 2.1354210000 0.0022840000
H -1.2000170000 2.1483450000 -0.0131840000
H -1.2000170000 -2.1483450000 -0.0131940000
H 1.2849260000 -2.1354200000 0.0022830000
N -2.7811580000 -0.0000030000 -0.0753530000
H -3.2230060000 -0.8340570000 0.2832350000
H -3.2230050000 0.8340780000 0.2831750000
F 2.7632350000 0.0000000000 0.0086350000
