8
0 1
Si 1.5181040000 -0.0000020000 -0.0000120000
C -0.4072560000 0.0000000000 -0.0000040000
F -0.9145570000 -0.7765350000 0.9904370000
H 1.9611780000 0.5246000000 1.3055420000
F -0.9146030000 -0.4694730000 -1.1677050000
H 1.9612030000 0.8683350000 -1.1070970000
F -0.9145650000 1.2460120000 0.1772890000
H 1.9612160000 -1.3929350000 -0.1984570000
