8
0 2
S -1.1955740000 -0.1594390000 -0.0000000000
C 0.4403610000 0.6208840000 0.0000000000
C 1.6292500000 -0.3358570000 -0.0000000000
H 0.4567320000 1.2870390000 0.8710730000
H 0.4567330000 1.2870420000 -0.8710700000
H 1.6139450000 -0.9787050000 0.8825440000
H 2.5701680000 0.2242010000 0.0000010000
H 1.6139460000 -0.9787030000 -0.8825460000
