9
0 1
S 0.0898050000 0.1507450000 0.0553240000
C -1.6167380000 -0.3655180000 0.0365800000
H -2.1861040000 0.4164650000 0.5387940000
H -1.7041540000 -1.3103170000 0.5696040000
H -1.9337020000 -0.4627160000 -1.0003910000
O 0.7562240000 -1.0749940000 -0.7923650000
O 0.6129430000 0.0621640000 1.3952240000
O 0.2165800000 1.3430550000 -0.7279350000
H 1.4015260000 -1.5040440000 -0.2120590000
