12
0 1
Si 0.7497650000 0.8146940000 0.0329830000
C -0.8758990000 0.0672390000 0.4908880000
C -1.9382480000 0.0976090000 -0.3241910000
Cl 2.2376340000 -0.6557810000 -0.0816740000
C -3.2931330000 -0.4666360000 -0.0200740000
H -0.9816970000 -0.4099440000 1.4651800000
H -1.8396330000 0.5665370000 -1.3034620000
H -3.3293140000 -0.9230510000 0.9709920000
H -3.5705180000 -1.2235350000 -0.7620890000
H -4.0589680000 0.3152170000 -0.0715430000
H 1.2313870000 1.7769770000 1.0439830000
H 0.6559260000 1.4510780000 -1.2961000000
