9
0 1
S 0.0000000000 0.0000000000 0.6595810000
C -0.0000000000 1.3925010000 -0.5131480000
H 0.8940600000 1.3796440000 -1.1397570000
H -0.0000000000 2.3067970000 0.0817520000
H -0.8940600000 1.3796440000 -1.1397570000
C -0.0000000000 -1.3925010000 -0.5131480000
H -0.0000000000 -2.3067970000 0.0817520000
H 0.8940600000 -1.3796440000 -1.1397570000
H -0.8940600000 -1.3796440000 -1.1397570000
