15
0 1
C -2.0097100000 -0.1892100000 -0.4009350000
B 1.2207180000 0.1325940000 0.0443750000
C 1.1129160000 1.6687110000 0.3164130000
H 0.1230010000 2.0887370000 0.1182080000
H 1.8841730000 2.2665190000 -0.1805650000
H 1.2709050000 1.7961670000 1.4010080000
C 2.5397400000 -0.5243030000 -0.4861880000
H 3.4398520000 0.0701760000 -0.2991620000
H 2.4235100000 -0.5700160000 -1.5831000000
H 2.7101540000 -1.5569870000 -0.1695240000
O -2.2335010000 0.9957600000 -0.2860200000
Si -0.4359300000 -1.0110800000 0.3874760000
H -0.7420250000 -1.0578390000 1.8439450000
H -0.3663390000 -2.4162050000 -0.0962200000
H -2.7334700000 -0.8256720000 -0.9687150000
