7
0 2
Si 1.3835750000 -0.1168950000 0.0000000000
O -0.0181940000 0.8445780000 -0.0000040000
H 1.4281410000 -0.9419250000 1.2312190000
H 1.4281170000 -0.9419540000 -1.2312000000
C -1.2756700000 0.3504990000 -0.0000020000
O -1.5527300000 -0.8139190000 0.0000030000
H -2.0048930000 1.1721430000 -0.0000050000
