12
0 2
C -1.2306200000 -0.6803750000 0.0093920000
C -0.0120680000 0.0714490000 0.0017070000
O 0.0388340000 1.2957920000 0.0063920000
O 1.0921960000 -0.7277940000 -0.0039500000
N -2.4018040000 0.0130210000 -0.0558970000
H -1.2475740000 -1.7592700000 0.0105440000
H -2.3253910000 1.0144340000 0.0639780000
H -3.2661470000 -0.4240360000 0.2164660000
C 2.3447990000 -0.0330340000 0.0011860000
H 3.1092740000 -0.8078170000 -0.0034010000
H 2.4405370000 0.5910970000 0.8923290000
H 2.4410280000 0.6022180000 -0.8818850000
