16
0 1
Si -2.2965630000 -0.6048300000 0.0000350000
Si -0.6567660000 1.0994390000 -0.0000720000
P 1.5317990000 0.4547420000 -0.0000300000
H -0.8609240000 1.9522370000 1.2000320000
H -0.8609230000 1.9520850000 -1.2002830000
H -2.1651060000 -1.4667860000 -1.2006990000
H -3.6573410000 -0.0129240000 0.0000010000
C 1.5507070000 -0.7388210000 1.4364430000
H 0.8104740000 -1.5383630000 1.3560750000
H 1.3798640000 -0.1903670000 2.3654910000
H 2.5449280000 -1.1892010000 1.4970260000
C 1.5507060000 -0.7390180000 -1.4363380000
H 1.3798580000 -0.1906930000 -2.3654610000
H 0.8104760000 -1.5385520000 -1.3558580000
H 2.5449290000 -1.1894040000 -1.4968630000
H -2.1651020000 -1.4666410000 1.2008710000
