14
0 1
C 0.0943330000 2.0966520000 0.0036730000
C -1.1331760000 1.4359250000 -0.0130650000
C -1.1894830000 0.0381630000 -0.0116400000
C 1.2832100000 1.3752050000 0.0090790000
C 1.2214910000 -0.0158620000 0.0006170000
C 0.0070720000 -0.6904330000 -0.0071460000
H 0.1269120000 3.1800890000 0.0055590000
H -2.0526040000 2.0101670000 -0.0317620000
P -2.8609470000 -0.7606060000 -0.0285440000
H 2.2427270000 1.8756350000 0.0155100000
H -0.0011020000 -1.7727190000 -0.0083210000
Cl 2.7164450000 -0.9406270000 0.0020450000
H -2.7866770000 -1.3878930000 1.2436900000
H -2.4952980000 -1.9434270000 -0.7203930000
