18
0 2
B -1.3756270000 1.1165740000 0.0000000000
O -0.8416880000 0.8129930000 -1.2020030000
O -0.8416880000 0.8129930000 1.2020030000
C 0.6114330000 -0.7433450000 -0.0000000000
C 0.4256330000 0.0949550000 1.2652150000
C 0.4256330000 0.0949550000 -1.2652150000
C 0.4256330000 -0.7225850000 -2.5450710000
H -0.3670190000 -1.4746070000 -2.5173140000
H 1.3854400000 -1.2298170000 -2.6789100000
H 0.2516910000 -0.0737620000 -3.4055160000
H 1.2129400000 0.8562340000 -1.3169970000
H -0.1156800000 -1.5643350000 -0.0000000000
H 1.6109110000 -1.1908850000 -0.0000000000
C 0.4256330000 -0.7225850000 2.5450710000
H 1.2129400000 0.8562340000 1.3169970000
H -0.3670190000 -1.4746070000 2.5173140000
H 0.2516910000 -0.0737620000 3.4055160000
H 1.3854400000 -1.2298170000 2.6789100000
