27
0 1
C 0.8539910000 0.0390050000 -0.4422060000
O 0.1522560000 0.9177890000 -0.8601450000
S 0.1773750000 -1.6352710000 -0.0406110000
S -1.7567350000 -1.4461340000 -0.7346070000
C -2.5616800000 -0.4774620000 0.6041300000
O -1.9822710000 -0.0878040000 1.5734080000
C 2.3088650000 0.1959000000 -0.1550800000
C 2.8248930000 1.4989450000 -0.1527730000
C 4.1721840000 1.7151970000 0.1049670000
C 5.0174270000 0.6340530000 0.3557680000
C 4.5118730000 -0.6645190000 0.3466060000
C 3.1622160000 -0.8856210000 0.0923120000
H 2.7835440000 -1.9003980000 0.0722980000
H 2.1527710000 2.3236480000 -0.3530980000
H 4.5652600000 2.7252460000 0.1104830000
H 6.0694500000 0.8033790000 0.5556140000
H 5.1690270000 -1.5056450000 0.5334560000
C -4.0310250000 -0.2282480000 0.3069520000
C -4.4061220000 1.2523800000 0.4927690000
H -4.5919370000 -0.8515190000 1.0127880000
H -4.2822320000 -0.5733550000 -0.7008890000
C -3.7731250000 2.1726120000 -0.5548710000
H -4.0982490000 1.5580310000 1.4961840000
H -5.4967650000 1.3355430000 0.4545490000
H -2.6817450000 2.1158480000 -0.5320910000
H -4.0572530000 3.2130120000 -0.3784240000
H -4.0989690000 1.9053650000 -1.5649140000
