12
0 1
C 1.2127440000 1.3022030000 -0.0319850000
C -0.0276210000 1.8358250000 -0.0715920000
C 1.4873260000 -0.1279960000 0.0591030000
P 0.0509920000 -1.2857190000 -0.3411180000
C -1.4252120000 -0.2159700000 0.0569300000
N -1.2326710000 1.1630580000 -0.0602870000
H -2.0825710000 1.7048470000 0.0402700000
O -2.5188120000 -0.6727970000 0.2952010000
O 2.5811520000 -0.6019440000 0.2860620000
H 2.0689440000 1.9649880000 -0.0010080000
H -0.1441860000 2.9128920000 -0.0970870000
H 0.0394990000 -2.0047830000 0.8717570000
