7
0 2
C -0.0565230000 0.0000000000 -0.3078100000
F -0.7365290000 -1.0969150000 0.0644430000
C 1.3893820000 0.0000000000 0.0455660000
F -0.7365290000 1.0969150000 0.0644430000
H 1.5167000000 0.0000000000 1.1371900000
H 1.8718350000 0.8887900000 -0.3618530000
H 1.8718350000 -0.8887900000 -0.3618530000
