8
0 1
Si 0.7935650000 0.8012770000 -0.0000000000
C -0.1810020000 -0.8506400000 0.0000000000
Cl 0.3075520000 1.8739590000 1.6775130000
Cl 0.3075520000 1.8739590000 -1.6775130000
Cl -1.9506110000 -0.5903740000 0.0000000000
Cl 0.3075520000 -1.7728350000 1.4675410000
Cl 0.3075520000 -1.7728350000 -1.4675410000
H 2.2229410000 0.4841070000 -0.0000000000
