13
0 2
O 2.0831500000 -0.0149900000 -0.2819900000
C 0.8585750000 0.0031910000 0.3109430000
C -0.0138080000 1.2238340000 0.0678720000
C -1.2849680000 0.8817220000 -0.1172820000
C -1.5098930000 -0.6119020000 -0.0196610000
C -0.0797820000 -1.2006180000 -0.0149790000
H -2.1206080000 -0.9942590000 -0.8433990000
H -2.0487630000 -0.8560060000 0.9040620000
H 0.0474920000 -2.0292000000 0.6822430000
H 0.1931600000 -1.5577800000 -1.0103160000
H 1.1419420000 -0.0234820000 1.3919940000
H 0.3974070000 2.2254810000 0.0675020000
H -2.0965770000 1.5778160000 -0.2975230000
