20
0 1
C -1.5812720000 -1.2682060000 -0.2588010000
C -0.2192320000 -1.4386630000 -0.0329560000
C -2.1481040000 -0.0326490000 0.0255260000
C -1.4000320000 1.0303500000 0.5207130000
C -0.0388590000 0.8468850000 0.7314640000
C 0.5674790000 -0.3879700000 0.4579320000
H 0.5615270000 1.6696570000 1.0963470000
H -2.2029850000 -2.0662640000 -0.6394860000
H 0.2361950000 -2.4013260000 -0.2361580000
N 3.0307740000 0.1080440000 -0.6672370000
O 2.7267870000 1.4994360000 -0.6043640000
O 4.4502950000 -0.0143040000 -0.5016080000
N -3.6002310000 0.1590290000 -0.2046210000
O -4.0730920000 1.2569450000 0.0535060000
O -4.2338870000 -0.7923560000 -0.6394320000
H -1.8876940000 1.9727210000 0.7277120000
H 4.7516380000 -0.2655900000 -1.3827430000
H 2.5722400000 1.7354120000 -1.5276590000
P 2.3563490000 -0.7275500000 0.7488310000
H 2.5693310000 0.3028720000 1.7044510000
