15
0 1
S -0.7012440000 -0.5301390000 0.0258050000
C 0.9843700000 -0.9274600000 -0.5790240000
Si -0.9324350000 1.7121870000 0.0073740000
O -0.7747590000 -0.9660780000 1.4173270000
O -1.6326510000 -1.0608580000 -0.9644370000
C 2.0543310000 -0.3415430000 0.2813440000
H 1.0294380000 -0.5902860000 -1.6160950000
C 2.9363950000 0.5619890000 -0.1407630000
H 2.0772140000 -0.6891700000 1.3097680000
H 2.9405800000 0.9238010000 -1.1645470000
H 3.6963490000 0.9604540000 0.5210510000
H 0.9774890000 -2.0226330000 -0.5585620000
H -0.1009080000 2.3201830000 1.0609630000
H -2.3730270000 1.8663320000 0.2757160000
H -0.5644420000 2.2004920000 -1.3368790000
