21
0 1
Si 1.1038490000 1.2193120000 -0.1049440000
C -0.5644950000 0.8567370000 0.6933100000
C -3.9509320000 -0.8157750000 -0.4194840000
C -2.9327210000 -0.1165500000 0.4855690000
H -3.5742320000 -1.7834950000 -0.7648660000
H -4.8939910000 -0.9941670000 0.1042270000
C -1.5908500000 0.1508890000 -0.2091800000
H -2.7576080000 -0.7261810000 1.3803950000
H -3.3492900000 0.8333630000 0.8419050000
H -1.7676790000 0.7572230000 -1.1062370000
H -1.1744500000 -0.7983570000 -0.5654580000
H -0.9632920000 1.8219040000 1.0354950000
H -0.3953820000 0.2692250000 1.6046850000
S 2.1981010000 -0.5361190000 -0.7258120000
C 2.6116240000 -1.2884340000 0.9032690000
H 1.7165480000 -1.6294680000 1.4229340000
H 3.1639700000 -0.5860040000 1.5276080000
H 3.2459480000 -2.1494240000 0.6936670000
H -4.1722740000 -0.2127590000 -1.3055880000
H 1.9350010000 1.9949550000 0.8505830000
H 0.9274780000 1.9895150000 -1.3580340000
