26
0 1
C -4.1388050000 -0.2661220000 -0.1370840000
C -2.9974680000 -1.0375260000 0.0420150000
C -4.0376250000 1.1108020000 -0.3370140000
C -2.7795920000 1.7042730000 -0.3506220000
C -1.6270950000 0.9409240000 -0.1656110000
C -1.7286200000 -0.4401880000 0.0287340000
H -3.0858490000 -2.1088250000 0.1865580000
H -5.1116670000 -0.7449080000 -0.1252990000
H -4.9287770000 1.7107250000 -0.4792540000
H -2.6846580000 2.7739930000 -0.5018170000
H -0.6634670000 1.4319980000 -0.1630580000
S -0.3466940000 -1.5389410000 0.2706940000
C 1.1259980000 -0.4835060000 0.0026320000
C 2.3329420000 -1.3701660000 -0.1711320000
C 1.4370560000 0.4614370000 1.1365000000
H 0.9725940000 0.0836980000 -0.9226750000
C 2.3617900000 1.4328470000 0.9921520000
C 3.4906300000 -0.8700420000 -0.6472550000
C 3.7743820000 0.5294120000 -0.8572900000
C 3.2684190000 1.5617030000 -0.1236910000
H 2.2518630000 -2.4233440000 0.0788690000
H 4.2965120000 -1.5651470000 -0.8676280000
H 0.8872310000 0.3475650000 2.0645790000
H 2.4702720000 2.1627600000 1.7903750000
H 4.5624740000 0.7629960000 -1.5677550000
H 3.6884990000 2.5484590000 -0.2979920000
