18
0 1
F 0.0001420000 1.5556440000 1.2175890000
N -1.1187870000 -0.5586590000 -0.3859850000
N 1.1187230000 -0.5587210000 -0.3860070000
C -0.0000150000 0.2249220000 -0.7740700000
C -0.6692920000 -1.5306090000 0.5333040000
H -1.3646190000 -2.1812360000 1.0357180000
C 0.6691920000 -1.5306360000 0.5333020000
H 1.3644950000 -2.1812920000 1.0357110000
C -2.4367410000 0.0455810000 -0.3127910000
H -2.5202400000 0.7677070000 0.5072810000
H -3.1793650000 -0.7426020000 -0.1761300000
C 2.4367100000 0.0454490000 -0.3128420000
H 3.1792940000 -0.7427730000 -0.1761900000
H 2.5202640000 0.7675750000 0.5072230000
H 2.6577730000 0.5590260000 -1.2511140000
O 0.0000320000 1.6166480000 -0.2447570000
H -0.0000170000 0.5538520000 -1.8291640000
H -2.6577940000 0.5591750000 -1.2510560000
