10
0 2
F -2.4697590000 -0.9191020000 -0.0805060000
B -1.1922240000 -1.0656110000 -0.2152540000
S -0.0305430000 0.4335140000 0.0639960000
O 0.2268820000 0.4491290000 1.4872580000
O 1.3131270000 -0.0159360000 -0.7106750000
C 2.1830460000 -0.9815390000 -0.0699890000
H 3.0645950000 -1.0278140000 -0.7057290000
H 1.7018890000 -1.9619130000 -0.0307720000
H 2.4482550000 -0.6460860000 0.9314230000
O -0.4944310000 1.5904070000 -0.6513440000
