10
0 1
C 0.7095330000 0.0293350000 -0.0002310000
O 1.1254040000 -0.0484600000 -1.3078560000
O 2.5591730000 0.0220560000 -1.3960980000
H 2.7811250000 -0.9224550000 -1.4396720000
C -0.8747100000 -0.0123400000 -0.0816200000
Cl 1.3251710000 -1.3842540000 0.9614870000
Cl -1.3921860000 -1.5255040000 -0.8904020000
Cl -1.5830770000 0.0536880000 1.5528090000
Cl -1.4550070000 1.3811070000 -1.0400860000
Cl 1.2658820000 1.5356520000 0.8022170000
