12
0 1
Si 2.1203080000 0.3273900000 0.2984810000
Si 0.2230380000 -0.8686760000 -0.4182580000
H 2.2671880000 1.5779600000 -0.4780730000
H 3.3346850000 -0.5043570000 0.1139080000
H 1.9887230000 0.6550210000 1.7384880000
C -1.3326600000 0.2204930000 -0.0729700000
H 0.1290300000 -2.1872960000 0.2668570000
H 0.2574500000 -1.1051820000 -1.8797380000
O -1.3557040000 1.3518800000 -0.5330990000
N -2.3494940000 -0.2918040000 0.6771110000
H -2.3309860000 -1.2343660000 1.0280860000
H -3.1648810000 0.2808430000 0.8501840000
