14
0 1
F 3.9055880000 0.2749490000 0.0000220000
N 0.4367820000 0.4488500000 -0.0000200000
N 1.9694060000 -1.3951090000 -0.0000250000
H 2.9123850000 -1.7413650000 0.0000560000
H 1.1719770000 -2.0106250000 0.0000390000
N 2.6288100000 0.8898690000 0.0000040000
C 1.7537760000 -0.0713940000 -0.0000090000
F -3.9055880000 -0.2749490000 0.0000120000
N -0.4367820000 -0.4488500000 -0.0000050000
N -1.9694060000 1.3951090000 -0.0000100000
H -2.9123850000 1.7413650000 -0.0000140000
H -1.1719770000 2.0106250000 -0.0000250000
N -2.6288100000 -0.8898690000 0.0000120000
C -1.7537760000 0.0713940000 -0.0000010000
