19
0 1
N 0.2095930000 -0.1055890000 -0.3424730000
N 0.7479440000 -1.3314580000 0.0025330000
B 0.9464490000 1.1596760000 -0.1298350000
O 0.0985270000 -2.3314250000 -0.2476360000
O 1.8610120000 -1.3475840000 0.5425870000
O 2.1651640000 1.2490000000 0.4404880000
O 0.2897980000 2.2736320000 -0.5669060000
C -1.1237610000 -0.1488560000 -0.9754500000
C -2.2825100000 -0.3777400000 0.0037210000
H -1.1123250000 -0.9296660000 -1.7365970000
H -1.2312370000 0.8150060000 -1.4704520000
C -2.4202310000 0.7009550000 1.0812920000
H -2.1766730000 -1.3635110000 0.4627430000
H -3.1968240000 -0.4156060000 -0.5989110000
H -1.5460060000 0.7273100000 1.7372400000
H -3.2927880000 0.5069500000 1.7098700000
H -2.5343110000 1.6951270000 0.6409950000
H 0.8126860000 3.0655100000 -0.4067740000
H 2.4854750000 0.3646810000 0.6850000000
