8
0 1
C 1.0628250000 0.0000000000 1.2353490000
Si -0.3852140000 0.0000000000 0.0481200000
Cl -2.0974850000 -0.0000010000 1.1924440000
Cl -0.3659340000 -1.6741640000 -1.1323150000
Cl 2.6507680000 -0.0000000000 0.3768150000
Cl -0.3659350000 1.6741650000 -1.1323140000
H 1.0259920000 -0.8874850000 1.8677500000
H 1.0259920000 0.8874860000 1.8677490000
