24
0 1
C -2.5862680000 -0.9583650000 0.2241490000
N -1.7862200000 0.1813770000 -0.0762150000
C -0.3526090000 0.1454260000 0.0289320000
N -2.4660400000 1.3161760000 -0.4927350000
O -1.7722150000 2.2616980000 -0.7504890000
O -2.0581850000 -1.9855320000 0.5684430000
C 0.3981590000 -0.5627550000 -0.8994190000
C 1.7875480000 -0.5977070000 -0.8043130000
C 2.4278380000 0.0922220000 0.2295520000
C 1.6655640000 0.8098100000 1.1617430000
C 0.2857560000 0.8328920000 1.0631230000
H -0.3017130000 1.3853800000 1.7859760000
H 2.1819530000 1.3364570000 1.9543920000
H -0.0999700000 -1.0975170000 -1.6985220000
H 2.3519050000 -1.1619610000 -1.5336200000
C -4.0820780000 -0.7903630000 0.0829860000
H -4.4530480000 0.0020600000 0.7348200000
H -4.5394010000 -1.7411540000 0.3500380000
H -4.3527140000 -0.5157600000 -0.9376480000
O 3.7733380000 0.1286750000 0.4169720000
C 4.6080510000 -0.5811250000 -0.4898770000
H 4.3941130000 -1.6552500000 -0.4740120000
H 5.6272780000 -0.4121220000 -0.1473660000
H 4.5021530000 -0.2019460000 -1.5120750000
