17
0 1
O -2.4782990000 -1.8306770000 0.1319630000
H -1.7054610000 -2.3774840000 0.2907540000
O -3.2918280000 0.3428090000 -0.1647330000
H -4.1293810000 -0.1325170000 -0.1474930000
N 3.7587820000 -1.5217880000 -0.0624360000
C 1.6427200000 -0.0354920000 -0.0075080000
C 2.8155290000 -0.8552190000 -0.0385330000
C -0.7898340000 0.1464610000 0.0058570000
C 0.3732450000 -0.6287450000 -0.0215930000
H 0.3229720000 -1.7120800000 -0.0670070000
C 1.7591230000 1.3606710000 0.0360880000
H 2.7418140000 1.8157700000 0.0483380000
C -0.6458740000 1.5434100000 0.0424550000
H -1.5379330000 2.1583910000 0.0569850000
C 0.6104320000 2.1430010000 0.0604680000
H 0.6977220000 3.2228050000 0.0917990000
B -2.2264460000 -0.4927870000 -0.0075150000
