12
0 1
C 2.2217950000 -0.0056120000 -0.0019060000
N 0.8494960000 -0.2312000000 -0.0514840000
C -0.1159760000 0.7618220000 0.0161450000
N -1.7378730000 -1.5001820000 0.1724290000
O 3.0324310000 -0.8962260000 -0.0398180000
H 2.4664420000 1.0630190000 0.0744880000
O 0.1224570000 1.9418030000 0.1439050000
H 0.5254400000 -1.1914010000 -0.1226980000
P -1.8847990000 0.1665900000 -0.2318330000
H -2.3176120000 0.7371560000 0.9896600000
H -2.3249220000 -2.1139750000 -0.3747050000
H -1.7327420000 -1.7758510000 1.1460050000
