7
0 1
Si 1.1033350000 0.0000000000 0.0069620000
P -1.1735190000 0.0000000000 -0.1186570000
H -1.3325410000 1.0358970000 0.8395680000
H -1.3325410000 -1.0358970000 0.8395680000
H 1.5984250000 1.2063160000 -0.6952190000
H 1.5984250000 -1.2063160000 -0.6952190000
H 1.6243200000 -0.0000000000 1.3936860000
