20
0 1
Si -1.1122040000 1.8233500000 0.3924950000
Si 1.1118370000 1.8234180000 -0.3921020000
C 2.0179160000 0.3020040000 0.3751750000
H 1.8217090000 3.0217220000 0.1112300000
H 1.1695160000 1.7756920000 -1.8694230000
O 2.0889120000 0.1693820000 1.5753000000
S 2.7189590000 -0.8657690000 -0.8032830000
C 3.4382300000 -2.1045190000 0.3238390000
H 2.9827720000 -3.0745780000 0.1307600000
H 3.2188650000 -1.7780170000 1.3416680000
H 4.5146230000 -2.1547420000 0.1670970000
C -2.0184150000 0.3021810000 -0.3750960000
H -1.8220780000 3.0218390000 -0.1103830000
H -1.1695820000 1.7752060000 1.8698150000
O -2.0903760000 0.1704290000 -1.5752610000
S -2.7179600000 -0.8667550000 0.8030950000
C -3.4377080000 -2.1049540000 -0.3243220000
H -2.9802450000 -3.0745910000 -0.1338680000
H -3.2211890000 -1.7765000000 -1.3421350000
H -4.5136470000 -2.1571510000 -0.1651410000
