16
0 1
Cl -0.0991860000 2.3848410000 0.0895000000
P -0.0103660000 0.6181120000 -0.9825960000
S 1.7338550000 -0.3041040000 0.1732180000
S -1.7172270000 -0.5585320000 -0.1029020000
O 2.8440780000 0.5829140000 -0.1148050000
O 1.3742190000 -0.6119740000 1.5471600000
O -2.9191310000 -0.0047420000 -0.6934750000
O -1.3151460000 -1.9316550000 -0.3811240000
C 1.9738050000 -1.8527800000 -0.7045090000
H 2.8113440000 -2.3422160000 -0.2041170000
H 2.2228970000 -1.6291650000 -1.7409910000
H 1.0615840000 -2.4413790000 -0.6187390000
C -1.7932590000 -0.3174260000 1.6732700000
H -2.0551450000 0.7202860000 1.8694520000
H -0.8320210000 -0.5873050000 2.1053290000
H -2.5884930000 -0.9871170000 2.0068420000
