13
0 2
C 2.8343060000 -0.3352760000 0.1308110000
C 1.5267560000 0.2566800000 -0.0135530000
H 3.5886140000 0.2402690000 0.6470780000
H 3.0523380000 -1.3218010000 -0.2525860000
O 1.1682160000 1.3377210000 0.3747170000
O 0.7030310000 -0.6413090000 -0.6949660000
C -1.4258770000 -0.2376540000 0.1716060000
O -1.1105380000 -0.7867180000 1.1798860000
C -2.7399940000 0.4213420000 -0.1564170000
H -2.6870080000 1.4649050000 0.1640110000
H -3.5285950000 -0.0797970000 0.4027600000
H -2.9501300000 0.3980240000 -1.2251350000
O -0.5915050000 -0.0762130000 -0.9259880000
