11
0 2
Si 1.8603110000 -0.3962540000 -0.0000020000
C 0.0317460000 0.2413530000 0.0000340000
H 2.5120130000 0.1685210000 -1.2096100000
H 2.5120480000 0.1685050000 1.2095930000
O -0.1029880000 1.4571380000 -0.0000040000
N -1.0000160000 -0.6405100000 0.0000020000
C -2.4004680000 -0.2370580000 -0.0000130000
H -0.7706900000 -1.6223100000 -0.0000010000
H -2.4313340000 0.8510270000 -0.0000890000
H -2.9150150000 -0.6086830000 0.8904000000
H -2.9150240000 -0.6088120000 -0.8903670000
