20
0 1
C 2.2136040000 -1.1320040000 0.0857230000
Si 2.0817410000 0.7730110000 0.4072090000
O 3.2966330000 -1.6443070000 0.1869870000
O 1.1251900000 -1.8835150000 -0.2106060000
P 0.3452580000 1.9041610000 -0.5547550000
C -1.0331410000 0.7160280000 -0.2260750000
H 0.3278000000 -1.3341000000 -0.2517510000
C -1.6521300000 0.7315700000 1.0343190000
C -1.5343380000 -0.1556640000 -1.2066880000
C -2.6175710000 -0.9897790000 -0.9290920000
C -3.2124110000 -0.9734280000 0.3296540000
C -2.7249900000 -0.1105550000 1.3102530000
H -3.1856770000 -0.0872780000 2.2912960000
H -1.2977080000 1.4121480000 1.8015230000
H -1.0838870000 -0.1778980000 -2.1928770000
H -2.9916960000 -1.6538920000 -1.6999530000
H -4.0509170000 -1.6252300000 0.5447370000
H 0.6451920000 1.4786520000 -1.8733030000
H 3.3445780000 1.3688440000 -0.0722010000
H 1.9603360000 0.9397440000 1.8733120000
