19
0 1
C -2.3571120000 0.5224290000 0.2603500000
P -1.8335060000 -1.0561660000 -0.6137190000
O -3.0877070000 1.3349690000 -0.2450850000
O -1.9393220000 0.5823910000 1.5419080000
N -0.2557910000 -1.3872850000 -0.0826630000
C 0.9019140000 -0.5882820000 -0.0767370000
H -2.3235830000 1.3875230000 1.9265340000
C 0.9224750000 0.7042410000 -0.6144000000
C 2.0825420000 -1.1097760000 0.4739030000
C 3.2503200000 -0.3582700000 0.4837400000
C 3.2698030000 0.9279480000 -0.0545540000
C 2.1000990000 1.4478230000 -0.6005430000
H 2.0955390000 2.4468970000 -1.0220490000
H 0.0274900000 1.1352360000 -1.0439520000
H 2.0787670000 -2.1110520000 0.8938800000
H 4.1505250000 -0.7818620000 0.9150930000
H 4.1811750000 1.5135630000 -0.0465740000
H -1.5708610000 -0.3745340000 -1.8228180000
H -0.1499380000 -2.2778490000 0.3791730000
