15
0 1
Si -0.7248300000 0.0094310000 -0.0000010000
C 1.0506790000 0.7677510000 0.0000020000
Cl -1.0820420000 -1.1457340000 1.6791390000
Cl -1.0820330000 -1.1457420000 -1.6791370000
Cl -2.0604380000 1.5541110000 -0.0000070000
N 2.1688390000 -0.0083630000 0.0000040000
C 2.1799370000 -1.4619410000 0.0000020000
O 1.0684590000 1.9901320000 0.0000010000
H 2.6959330000 -1.8385570000 -0.8890720000
H 1.1710100000 -1.8669630000 0.0000150000
H 2.6959530000 -1.8385570000 0.8890640000
C 3.4780350000 0.6400350000 0.0000030000
H 3.3320370000 1.7171210000 -0.0000000000
H 4.0439850000 0.3462690000 -0.8895980000
H 4.0439840000 0.3462740000 0.8896060000
