18
0 1
F -3.3882330000 0.0327910000 -0.0000190000
F -2.2278060000 -1.9052660000 -0.0000180000
B -2.2036850000 -0.5730350000 0.0000200000
C -0.8795000000 0.2159930000 0.0000120000
C 0.3469800000 -0.4746150000 0.0000090000
C 1.5500240000 0.2297260000 0.0000020000
C 1.5291190000 1.6320560000 -0.0000020000
C -0.8839680000 1.6159200000 0.0000070000
H -1.8259200000 2.1512300000 0.0000090000
C 0.3219640000 2.3158740000 0.0000000000
H 0.3234120000 3.3999930000 -0.0000030000
H 2.4767440000 2.1574670000 -0.0000070000
H 0.3366090000 -1.5563280000 0.0000130000
O 2.7868460000 -0.3401010000 -0.0000000000
C 2.8789470000 -1.7590910000 0.0000050000
H 2.4161680000 -2.1913320000 -0.8939360000
H 2.4161740000 -2.1913250000 0.8939520000
H 3.9434300000 -1.9866210000 0.0000020000
