18
0 1
C -0.6172440000 -0.0028820000 -0.0000090000
B 0.9768740000 0.0237650000 -0.0000240000
O 1.6456160000 -1.1674050000 0.0000370000
O 1.7387180000 1.1657430000 -0.0000050000
C -1.2218380000 1.4148700000 -0.0000100000
H -0.9258070000 1.9856160000 -0.8880830000
H -0.9257920000 1.9856240000 0.8880520000
C -1.1005780000 -0.7610660000 1.2584930000
H -2.1941140000 -0.8406420000 1.2629530000
H -0.8033710000 -0.2475570000 2.1789990000
H -0.6859930000 -1.7709800000 1.2926550000
C -1.1005970000 -0.7610760000 -1.2584970000
H -0.8034050000 -0.2475740000 -2.1790130000
H -2.1941330000 -0.8406510000 -1.2629380000
H -0.6860140000 -1.7709910000 -1.2926580000
H -2.3163500000 1.3729660000 -0.0000010000
H 2.6007930000 -1.0425050000 0.0000550000
H 1.2166970000 1.9720900000 -0.0000120000
