7
0 2
N -0.0001290000 -1.2555600000 -0.2830180000
C 1.0470770000 -0.4428110000 0.0407470000
O 2.2201360000 -0.4126180000 0.0335420000
C -1.0472160000 -0.4424600000 0.0402530000
N 0.0000110000 0.6424110000 0.4655870000
O -2.2202810000 -0.4123420000 0.0336880000
F 0.0003140000 1.8003720000 -0.2557580000
