14
0 1
P 0.9906120000 -0.0979500000 0.1304610000
O 0.9947960000 -1.1475000000 1.1644550000
O 1.6837330000 1.3117330000 0.4687840000
Si -1.0701020000 0.5332170000 -0.5095320000
C -2.4160800000 0.3041160000 0.7488070000
C -2.3691940000 -0.7872580000 -0.3419580000
H -3.2642200000 0.9815080000 0.7270100000
H -2.1373740000 -0.0033810000 1.7510820000
H -2.0699200000 -1.7781480000 -0.0169340000
H -3.1883170000 -0.7988430000 -1.0544950000
H 2.6320990000 1.2475730000 0.6474300000
O 1.8390810000 -0.5174430000 -1.1926380000
H 1.8772370000 -1.4781820000 -1.2811160000
H -1.1565020000 1.5582140000 -1.5623370000
