7
0 1
N 0.4708940000 -0.0612510000 0.4060710000
B -0.7733850000 -0.7658690000 0.0414470000
F 0.4450390000 1.2707040000 -0.0565330000
F 1.5965540000 -0.6145040000 -0.1840030000
O -1.9101870000 -0.0731480000 -0.1011990000
H -1.7828860000 0.8842570000 -0.0862280000
H -0.7392940000 -1.9467750000 0.0109170000
