14
0 1
C -0.6447080000 -0.0375870000 0.4324910000
C 0.8929160000 -0.0032960000 0.6714610000
N 1.7423420000 0.1384630000 -0.6279650000
O 2.6711840000 -0.6151420000 -0.7538470000
O 1.3927810000 1.0549150000 -1.3439700000
F 1.2475590000 -1.1207870000 1.2937980000
N -1.0530020000 -1.3182240000 -0.3199090000
N -1.1932440000 1.1818210000 -0.3870240000
O -0.2664360000 -1.6809480000 -1.1711610000
O -2.1036700000 -1.8111280000 0.0039450000
O -1.1838500000 2.2197710000 0.2280680000
O -1.6007720000 0.9522020000 -1.4995530000
F 1.1968940000 1.0520620000 1.4265520000
F -1.2484330000 -0.0119960000 1.6143980000
