16
0 1
C 0.8396510000 0.8374000000 0.0000120000
C 2.2166700000 0.2186790000 0.0000210000
O 2.4428370000 -0.9648240000 -0.0000280000
H 3.0542410000 0.9532010000 -0.0000320000
C -0.3131250000 -0.1640650000 0.0000080000
H 0.7892450000 1.5088920000 -0.8699640000
H 0.7892380000 1.5088940000 0.8699860000
C -1.6918660000 0.5047730000 0.0000000000
H -0.2173990000 -0.8193100000 0.8723480000
H -0.2173910000 -0.8193140000 -0.8723270000
C -2.8443570000 -0.5027750000 -0.0000030000
H -1.7792180000 1.1591480000 -0.8762990000
H -1.7792260000 1.1591520000 0.8762960000
H -2.8047060000 -1.1486010000 -0.8826340000
H -3.8145960000 0.0010530000 -0.0000090000
H -2.8047150000 -1.1485970000 0.8826310000
