11
0 1
C 0.8397270000 0.0827360000 0.3712940000
Si -0.8569010000 -0.6531560000 -0.0909420000
O 0.8592300000 1.3700750000 -0.2426430000
H 1.6181150000 1.8724370000 0.0752140000
O -2.0087000000 0.5094590000 0.1314920000
H -1.2037490000 -1.7681790000 0.8123080000
H -0.7731430000 -1.1227850000 -1.4915730000
H -1.7534210000 1.3920330000 -0.1540130000
O 1.8300130000 -0.7914860000 -0.1344470000
H 2.6690940000 -0.6248670000 0.3084650000
H 0.9570150000 0.1947390000 1.4598040000
