18
0 1
C 2.9280520000 -0.3788280000 -0.1228990000
C 1.4691620000 -0.3840060000 0.3406670000
H 3.4767190000 -1.2351460000 0.2786330000
H 3.4467560000 0.5292280000 0.2014890000
H 2.9952640000 -0.4248030000 -1.2143820000
C 0.6648420000 0.8034450000 -0.1999020000
H 1.4323810000 -0.3720350000 1.4372270000
H 0.9802480000 -1.3100060000 0.0261820000
C -0.7984950000 0.7914490000 0.2174720000
H 0.7103460000 0.8130880000 -1.2949880000
H 1.1116620000 1.7448250000 0.1430050000
O -1.4238990000 -0.3566230000 -0.3332220000
H -1.3059360000 1.7019540000 -0.1386870000
H -0.8843030000 0.7760930000 1.3169360000
C -2.7837530000 -0.4706420000 0.0257460000
H -2.9107980000 -0.5559650000 1.1151560000
H -3.1699690000 -1.3746530000 -0.4465410000
H -3.3700320000 0.3918970000 -0.3247520000
