16
0 1
C 2.7214960000 0.8588120000 0.0000070000
S 1.8219480000 -0.7180510000 -0.0000090000
H 2.5064620000 1.4428350000 -0.8959330000
H 2.5064470000 1.4428230000 0.8959520000
C 0.1113660000 -0.2285770000 -0.0000020000
C -0.3339710000 1.0965120000 -0.0000030000
C -1.7009430000 1.3743730000 0.0000010000
C -0.8334490000 -1.2657890000 0.0000030000
C -2.1919110000 -0.9782540000 0.0000060000
C -2.6359160000 0.3448650000 0.0000050000
H -3.6965250000 0.5668650000 0.0000080000
H -2.0298900000 2.4078150000 0.0000000000
H 0.3703680000 1.9176460000 -0.0000070000
H -0.4984020000 -2.2974040000 0.0000050000
H -2.9079650000 -1.7925710000 0.0000100000
H 3.7783080000 0.5891600000 0.0000140000
