25
0 1
C -4.1141900000 -0.3696170000 -0.6521570000
C -2.9927860000 0.3424910000 -1.0625310000
C -4.1123770000 -1.0570580000 0.5599520000
C -2.9679500000 -1.0239860000 1.3538950000
C -1.8363370000 -0.3212300000 0.9515870000
C -1.8408670000 0.3705710000 -0.2642660000
N -0.7085940000 1.0657970000 -0.7338030000
S 0.5383020000 1.6488350000 0.2449260000
C 1.8473510000 0.4409970000 0.0272620000
C 1.7274720000 -0.6740790000 -0.8000090000
C 3.0316680000 0.6644050000 0.7365830000
C 4.0908300000 -0.2289580000 0.6130780000
C 2.7941720000 -1.5636310000 -0.9142600000
C 3.9775820000 -1.3472570000 -0.2123540000
H 0.8071560000 -0.8399280000 -1.3453760000
H 2.6951870000 -2.4311720000 -1.5574400000
H 4.8036260000 -2.0424870000 -0.3057030000
H 3.1262850000 1.5318860000 1.3820280000
H 5.0069210000 -0.0497670000 1.1648410000
H -3.0067590000 0.8814230000 -2.0051060000
H -4.9960750000 -0.3797090000 -1.2831270000
H -4.9885050000 -1.6078850000 0.8804500000
H -2.9491290000 -1.5546770000 2.2994220000
H -0.9500650000 -0.3049270000 1.5728710000
H -0.8287330000 1.5593960000 -1.6057490000
