12
0 1
S -0.1147860000 -0.9964190000 -0.2110730000
Si -1.6208920000 0.5174780000 0.0481860000
C 1.3658760000 -0.2033370000 0.5759070000
C 2.0720720000 0.8226210000 -0.3038300000
H 2.0262910000 -1.0440160000 0.7967810000
H 1.0610280000 0.2259420000 1.5322680000
H 2.3772190000 0.3792010000 -1.2537940000
H 2.9672750000 1.1985520000 0.2026760000
H 1.4283330000 1.6769980000 -0.5243600000
H -2.8772810000 -0.0949790000 -0.4318400000
H -1.3421440000 1.7479280000 -0.7290140000
H -1.7393510000 0.8926850000 1.4773880000
