11
0 2
Si -2.2806450000 -0.0892920000 -0.0001480000
O -0.7066050000 -0.7101760000 0.0000650000
C 0.3883850000 0.0697830000 0.0002740000
O 0.3750900000 1.2747320000 0.0000930000
O 1.4740800000 -0.7039770000 0.0000640000
C 2.7269070000 0.0064260000 -0.0001060000
H 2.8105860000 0.6319970000 -0.8896710000
H 3.4929020000 -0.7652410000 -0.0002610000
H 2.8108640000 0.6319180000 0.8894890000
H -2.5086130000 0.7048410000 -1.2313570000
H -2.5089890000 0.7046900000 1.2310900000
