8
0 1
F -2.6325880000 0.0000090000 -0.3819430000
P -1.2621270000 0.0000080000 0.4781010000
C -0.0000040000 1.2789800000 -0.0000840000
O 0.0000200000 2.4717520000 -0.0000420000
C -0.0000130000 -1.2789800000 -0.0000680000
P 1.2621730000 -0.0000080000 -0.4781050000
O -0.0000110000 -2.4717520000 -0.0000450000
F 2.6325150000 -0.0000090000 0.3821290000
