18
0 1
N -3.2595360000 -0.5795410000 0.7836710000
O -2.4532020000 -0.9024510000 1.5592640000
S -2.5854840000 0.2871830000 -0.8263370000
C -0.8544180000 0.2927360000 -0.5038070000
C -0.2519430000 1.3807630000 0.1516870000
C 1.1017210000 1.3716570000 0.4335250000
C 1.8907840000 0.2679570000 0.0771370000
C 1.3008640000 -0.8264400000 -0.5645080000
C -0.0625840000 -0.8077870000 -0.8455230000
H -0.8567950000 2.2345730000 0.4316240000
H 1.5789860000 2.2056420000 0.9332190000
O 3.2068930000 0.3584230000 0.3968000000
H -0.5172400000 -1.6560680000 -1.3425960000
H 1.8863380000 -1.6909830000 -0.8459450000
C 4.0669430000 -0.7279950000 0.0713780000
H 3.7603500000 -1.6470010000 0.5819170000
H 5.0558540000 -0.4352890000 0.4189520000
H 4.0992700000 -0.9021450000 -1.0093370000
