7
0 2
F -2.3920350000 -0.0494540000 -0.0917840000
B -1.2969040000 -0.5612890000 -0.5483480000
S 0.3854200000 0.0809200000 0.1089130000
O 0.4356890000 1.5153880000 0.1063380000
O 0.6637470000 -0.7192550000 1.2812910000
O 1.4117350000 -0.3931700000 -1.0570890000
H 1.7567420000 -1.2669020000 -0.8191280000
