12
0 1
F 2.5125190000 -0.3311250000 -0.0000010000
N 0.2947130000 -0.5740920000 -0.0000010000
C -1.1413390000 1.4282670000 0.0000010000
C -0.8756160000 -0.0544780000 0.0000000000
C -2.0268550000 -1.0179800000 0.0000000000
O 1.2695730000 0.3990350000 -0.0000010000
H -0.6889200000 1.8981500000 -0.8785720000
H -0.6889160000 1.8981490000 0.8785730000
H -2.2110370000 1.6370560000 0.0000040000
H -1.6671480000 -2.0462010000 -0.0000000000
H -2.6566770000 -0.8577580000 -0.8814460000
H -2.6566760000 -0.8577590000 0.8814480000
