19
0 1
C -0.1736110000 1.2290430000 0.0977060000
C -1.5414200000 0.9908880000 0.1269590000
C -2.0189080000 -0.3160750000 -0.0327820000
C -1.1092260000 -1.3665180000 -0.2233270000
C 0.2508060000 -1.1174310000 -0.2357580000
C 0.7444430000 0.1854280000 -0.0661570000
H 0.2056290000 2.2374450000 0.2058730000
H -2.2209910000 1.8198600000 0.2694190000
H -1.5002510000 -2.3660170000 -0.3667770000
H 0.9280580000 -1.9424540000 -0.4162020000
O -3.3275820000 -0.6655710000 -0.0253620000
C 2.1845230000 0.5603950000 -0.0989810000
O 2.5707160000 1.6813790000 -0.3184460000
S 3.4700680000 -0.6916140000 0.2196150000
H 2.6957730000 -1.6937360000 0.6631250000
C -4.3101370000 0.3510340000 0.1495160000
H -4.1966170000 0.8530640000 1.1158340000
H -5.2703850000 -0.1599620000 0.1188560000
H -4.2661880000 1.0905730000 -0.6565600000
