21
0 1
O -0.3023130000 -0.3463770000 -0.1761910000
Si 1.1723010000 -0.9917130000 0.2012960000
C 2.4874420000 0.1655400000 -0.4567050000
C -1.5652780000 -0.9222460000 0.1606150000
C -2.6880300000 -0.0553950000 -0.3946610000
C -2.7169420000 1.3561980000 0.1948550000
H -3.6371330000 -0.5675830000 -0.1966270000
H -2.5766950000 -0.0048980000 -1.4829530000
H -2.8681470000 1.3283650000 1.2788470000
H -3.5266400000 1.9482060000 -0.2395780000
H -1.7755710000 1.8733430000 0.0005730000
C 2.4615920000 1.5824880000 0.1435490000
H 2.3814020000 0.2126990000 -1.5466580000
H 3.4594880000 -0.3090110000 -0.2700480000
H 1.5085770000 2.0774950000 -0.0571740000
H 3.2561660000 2.2074900000 -0.2740990000
H 2.5979200000 1.5586530000 1.2287310000
H -1.6558940000 -1.0026340000 1.2533190000
H -1.6340970000 -1.9358480000 -0.2559230000
H 1.3092630000 -2.3416800000 -0.4097160000
H 1.2949480000 -1.1491060000 1.6767670000
