21
0 1
C -1.5951830000 1.4531070000 -0.0000160000
C -1.2524920000 0.0978130000 -0.0000240000
C 0.0972960000 -0.2766410000 -0.0000140000
C -0.5908030000 2.4202120000 0.0000010000
C 0.7472020000 2.0489720000 0.0000110000
C 1.0941930000 0.6928690000 0.0000040000
H -0.8528120000 3.4720270000 0.0000070000
H 1.5398930000 2.7870320000 0.0000250000
O 2.4259190000 0.3914610000 0.0000140000
Si 3.2000810000 -1.0839510000 0.0000130000
H -2.6326930000 1.7611980000 -0.0000230000
H 0.3281990000 -1.3358350000 -0.0000210000
C -2.2754980000 -1.0030010000 -0.0000460000
O -1.9296320000 -2.1678030000 0.0000110000
C -3.7473930000 -0.6332220000 0.0000070000
H -4.0008270000 -0.0378190000 0.8818430000
H -4.3349570000 -1.5495790000 0.0000410000
H -4.0008910000 -0.0378420000 -0.8818270000
H 4.6345270000 -0.7492610000 0.0000310000
H 2.8421050000 -1.8622530000 -1.2063000000
H 2.8420780000 -1.8622700000 1.2063060000
