19
0 1
C 2.8417380000 0.9209890000 -0.5848310000
C 1.4681570000 1.1087160000 -0.4482640000
C 0.6537770000 0.0991760000 0.0897350000
Si -1.1855000000 0.3311830000 0.2801280000
O -1.7025410000 -0.0383410000 1.8063420000
P -2.3614910000 -1.1475440000 -0.9804290000
C 3.4252850000 -0.2807170000 -0.1883470000
C 2.6330160000 -1.2952120000 0.3467330000
C 1.2604710000 -1.1056230000 0.4836730000
H 0.6563860000 -1.9041440000 0.9036250000
H 3.4568150000 1.7117420000 -1.0003170000
H 1.0178920000 2.0457130000 -0.7549620000
H 4.4944170000 -0.4272830000 -0.2964490000
H 3.0842500000 -2.2316930000 0.6555860000
H -2.1129170000 -0.4555970000 -2.1951330000
H -3.6131190000 -0.5123220000 -0.7571890000
H -1.2350840000 0.3703560000 2.5407480000
O -1.4330320000 1.9220190000 -0.0962350000
H -2.3393460000 2.2264360000 -0.1843180000
