23
0 1
C -2.0591090000 -1.5393460000 0.1032100000
C -3.3713630000 -1.1412830000 0.1864850000
C -3.7025780000 0.2335160000 0.1574020000
C -2.7156700000 1.1831960000 0.0456020000
C -1.3514980000 0.8050110000 -0.0425910000
C -1.0159290000 -0.5841460000 -0.0131100000
H -1.8024640000 -2.5934660000 0.1249080000
H -4.1597660000 -1.8802410000 0.2747010000
H -4.7419200000 0.5350020000 0.2237710000
H -2.9688240000 2.2380980000 0.0231280000
C 0.3501890000 -0.9617900000 -0.1025310000
C 1.3633570000 -0.0285510000 -0.2158710000
C -0.3017660000 1.7541450000 -0.1584310000
C 1.0071990000 1.3524210000 -0.2394280000
H -0.5522480000 2.8100160000 -0.1808150000
H 1.7855250000 2.1045620000 -0.3235810000
B 4.3778780000 0.2849140000 1.0368700000
H 0.5850870000 -2.0222000000 -0.0814830000
Si 3.1623010000 -0.5693050000 -0.3230010000
H 4.1661510000 1.3788660000 1.4620220000
H 5.3708980000 -0.2617360000 1.4070860000
H 3.1967340000 -2.0533380000 -0.2815450000
H 3.7422260000 -0.1488920000 -1.6349580000
