8
0 1
Si 1.8627110000 -0.3527390000 0.0000000000
Si -0.1638600000 0.8469240000 0.0000000000
H -0.3087370000 1.6920990000 1.2050370000
H 1.9438540000 -1.2020210000 1.2101510000
Cl -1.7674240000 -0.5004630000 -0.0000010000
H 1.9438550000 -1.2020200000 -1.2101510000
H -0.3087370000 1.6921000000 -1.2050350000
H 2.9920580000 0.6091120000 0.0000010000
