14
0 1
C 0.1333630000 0.2010070000 0.0001300000
C -1.2915110000 0.6078000000 0.0002000000
O -1.7106250000 1.7162440000 -0.0000570000
C 0.5671030000 -1.1289320000 0.0001050000
C 1.9285870000 -1.4122480000 0.0000450000
C 2.8606680000 -0.3764030000 0.0000040000
C 2.4323760000 0.9514220000 0.0000240000
H 2.2618650000 -2.4432240000 0.0000280000
H 3.9208450000 -0.6029280000 -0.0000440000
H -0.1571020000 -1.9313180000 0.0001370000
C 1.0754770000 1.2420750000 0.0000850000
H 3.1565190000 1.7575560000 -0.0000080000
H 0.7241580000 2.2658980000 0.0001020000
Cl -2.4975100000 -0.7814270000 -0.0001950000
