14
0 1
N 1.9161570000 -1.1748680000 -0.0000400000
C 2.4774940000 0.0366700000 -0.0000340000
C 1.7176770000 1.2059630000 0.0000080000
N 0.3850320000 1.1710830000 0.0000380000
C -0.1831770000 -0.0393700000 0.0000330000
C 0.5824020000 -1.2081690000 -0.0000050000
H 0.0919300000 -2.1741780000 0.0000030000
H 3.5624710000 0.0783170000 -0.0000660000
H 2.1897280000 2.1834750000 0.0000110000
C -1.6920120000 -0.1337360000 0.0000990000
O -2.2575990000 -1.2139280000 -0.0000400000
N -2.3164830000 1.0675290000 -0.0000130000
H -1.7681720000 1.9131650000 -0.0000200000
H -3.3224090000 1.0962910000 -0.0001070000
