26
0 1
Si 1.0266680000 -0.1161020000 -0.0198890000
C 1.3887200000 -0.0707990000 1.8321430000
H 2.4342040000 -0.3294530000 2.0281300000
H 0.7659940000 -0.7818630000 2.3831800000
H 1.2124670000 0.9230090000 2.2545260000
C 1.3775670000 -1.8507050000 -0.6776880000
C 2.1703670000 1.0986400000 -0.9033810000
C -0.7916750000 0.3492630000 -0.3658850000
H 2.4352130000 -2.1034050000 -0.5515520000
H 1.1468470000 -1.9266520000 -1.7450660000
H 0.7947520000 -2.6153790000 -0.1563410000
H 3.2171090000 0.8038280000 -0.7779540000
H 2.0681530000 2.1157180000 -0.5142690000
H 1.9647680000 1.1312510000 -1.9780960000
C -1.1008870000 1.8096680000 0.0207550000
H -1.0253010000 1.9577460000 1.1035190000
H -2.1108710000 2.1068750000 -0.2766540000
H -0.4103070000 2.5106300000 -0.4557270000
C -1.7865100000 -0.6461550000 0.2757800000
H -0.9018480000 0.2633100000 -1.4583470000
C -3.2405430000 -0.4954990000 -0.1923190000
H -1.7489720000 -0.5388000000 1.3671930000
H -1.4653540000 -1.6719340000 0.0633840000
H -3.6591420000 0.4786510000 0.0721260000
H -3.8782880000 -1.2588410000 0.2629760000
H -3.3150160000 -0.6057360000 -1.2790130000
