12
0 1
F 2.5000590000 -0.2310180000 -0.2098580000
S 1.2158590000 -1.2523840000 -0.4318570000
C -0.0682650000 -0.0680170000 -0.0268410000
N -1.3226110000 -0.9162280000 0.1622580000
O -2.2378220000 -0.4636580000 0.7947950000
O -1.2416380000 -2.0099720000 -0.3811480000
N 0.1535350000 0.7352630000 1.3060220000
O 0.6570430000 0.1051870000 2.2033560000
O -0.2503130000 1.8726590000 1.3049640000
N -0.3311380000 0.9721450000 -1.1505930000
O -1.4256100000 0.9482620000 -1.6664810000
O 0.6179400000 1.6709160000 -1.4135250000
