16
0 1
C 0.4738360000 0.2640810000 -0.0000140000
B 1.9941330000 0.6341640000 -0.0000230000
N 3.0144290000 -0.3176610000 0.0000260000
H 2.8595040000 -1.3143430000 0.0000760000
H 3.9892160000 -0.0644050000 0.0000200000
C -0.4837800000 1.2925150000 0.0000010000
C -1.8501120000 1.0206170000 0.0000150000
C -2.2941240000 -0.2993550000 0.0000100000
C -1.3666470000 -1.3418190000 -0.0000080000
C -0.0052350000 -1.0583720000 -0.0000190000
H 0.6943770000 -1.8897440000 -0.0000370000
H -0.1457570000 2.3238540000 0.0000030000
H -2.5669580000 1.8346130000 0.0000270000
H -3.3566270000 -0.5173650000 0.0000190000
H -1.7086000000 -2.3712230000 -0.0000140000
H 2.3195540000 1.7854240000 -0.0000680000
