7
0 2
C -0.6933460000 0.0000010000 -0.0017300000
C 0.7940480000 0.0000000000 -0.0192240000
H -1.0934740000 -0.0000340000 1.0259910000
H -1.1071360000 -0.8861600000 -0.4927770000
H -1.1071360000 0.8861920000 -0.4927200000
H 1.3517670000 -0.9262410000 0.0426130000
H 1.3517700000 0.9262390000 0.0426140000
