11
0 2
C 1.1256180000 1.3984720000 -0.0412100000
B 0.4069810000 0.0014080000 0.0187040000
H 1.3368040000 1.6794010000 1.0032630000
H 0.5342780000 2.2134540000 -0.4650320000
H 2.0973140000 1.3586650000 -0.5453090000
C 1.2476240000 -1.3262970000 0.0421300000
H 1.4410140000 -1.5918830000 -1.0101100000
H 0.7481350000 -2.1894350000 0.4888320000
H 2.2322160000 -1.2004760000 0.5042040000
P -1.5258440000 -0.1186140000 -0.0512850000
H -1.7764620000 1.0693990000 0.6943860000
