12
0 1
N 1.1730600000 0.9869670000 -0.0000010000
C 1.2242130000 -0.4067410000 0.0000210000
N -0.0321540000 -0.9875410000 -0.0000020000
C -1.2930030000 -0.3496840000 -0.0000300000
C -1.2031390000 1.1066740000 0.0000000000
C 0.0023250000 1.7064050000 -0.0000020000
H -2.1227330000 1.6711590000 0.0000100000
H 0.1199000000 2.7826870000 -0.0000010000
O -2.3134100000 -1.0051320000 0.0000120000
O 2.2644210000 -1.0245390000 -0.0000010000
H 2.0703290000 1.4471240000 -0.0000050000
H -0.0443030000 -1.9995110000 -0.0000020000
