21
0 2
C 1.9460680000 -1.1015540000 -0.2961020000
S 1.0291270000 0.2601420000 -1.1341330000
C -0.0032680000 0.9180230000 0.1173430000
C -0.2172310000 2.4043840000 0.1494510000
H -0.4689660000 2.7352080000 1.1615000000
H -1.0511020000 2.7143640000 -0.4971150000
H 0.6777010000 2.9377210000 -0.1796050000
S -0.9575840000 -0.0992220000 1.1828030000
C -1.8692470000 -1.2441370000 0.0528900000
C -2.9310860000 -0.5579120000 -0.7977240000
H -2.3114730000 -1.9744310000 0.7355910000
H -1.1400510000 -1.7662470000 -0.5684710000
H -3.6684900000 -0.0485870000 -0.1735600000
H -3.4537350000 -1.2945610000 -1.4170590000
H -2.4798090000 0.1789900000 -1.4655560000
C 2.9756340000 -0.6130920000 0.7162500000
H 2.4176880000 -1.6390440000 -1.1225220000
H 1.2194690000 -1.7694660000 0.1679180000
H 3.7159010000 0.0364930000 0.2441430000
H 3.4992580000 -1.4649820000 1.1624110000
H 2.4936990000 -0.0544450000 1.5209760000
