18
0 1
C 0.7248630000 -0.9951790000 -0.7981800000
Si -0.5488890000 -1.2102920000 0.5712420000
S -2.5893150000 -1.0343260000 -0.1669420000
H -0.3257150000 -0.2238770000 1.6459300000
H -0.4634660000 -2.5904340000 1.1002170000
S -2.5849210000 1.0097470000 -0.6878790000
S 2.4453990000 -1.0984590000 -0.1245070000
S 2.7856100000 0.7744610000 0.7078730000
C -3.1744670000 1.8042940000 0.8471120000
H -3.2404680000 2.8708660000 0.6176940000
H -2.4698340000 1.6528240000 1.6638070000
H -4.1609380000 1.4295420000 1.1165330000
C 3.3896100000 1.7534310000 -0.7157180000
H 3.6527350000 2.7333090000 -0.3095260000
H 2.6119370000 1.8756700000 -1.4689770000
H 4.2742830000 1.2901280000 -1.1497270000
H 0.6042530000 -0.0683330000 -1.3592020000
H 0.6532710000 -1.8236540000 -1.5101440000
