12
0 1
S 0.6974090000 -1.2874810000 -0.5888930000
S 2.3795770000 -0.8597160000 0.5336110000
C 2.9534820000 0.6393610000 -0.2686840000
C -0.5115470000 -0.2168190000 0.2242090000
O -1.7027300000 -0.4867260000 -0.4148200000
O -0.3383380000 0.5566530000 1.1024610000
O 2.4828690000 1.2600760000 -1.1488490000
F 4.1026380000 0.9777960000 0.3552950000
C -2.8476910000 0.2039490000 -0.0360830000
F -3.1580780000 -0.0281740000 1.2372310000
F -3.8252800000 -0.2464530000 -0.8117880000
F -2.7116850000 1.5141850000 -0.2187890000
