14
0 1
Si 0.4998400000 -0.0236510000 0.4251220000
B -1.3755060000 -0.7715670000 0.1808520000
O -2.3460500000 0.0497180000 -0.2951390000
C 0.6523380000 1.7596080000 -0.1748290000
H -0.0650840000 2.4055060000 0.3386980000
H 0.4483040000 1.8295260000 -1.2474070000
C 1.7734590000 -1.1256260000 -0.4400990000
H 1.6189280000 -1.1361640000 -1.5233520000
H 1.7089350000 -2.1576050000 -0.0836520000
H 2.7908110000 -0.7703430000 -0.2520350000
H 1.6551130000 2.1580420000 0.0049820000
H -3.2083840000 -0.3731410000 -0.3750040000
H -1.6599580000 -1.9111860000 0.4453750000
H 0.8047230000 -0.0573170000 1.8871090000
