22
0 2
C -1.3509190000 1.3781390000 -0.1738710000
C -2.5381630000 0.6325240000 -0.8005410000
C -2.8996250000 -0.6264400000 -0.0008080000
C -1.6809570000 -1.5421250000 0.1772770000
C -0.4959460000 -0.7907790000 0.8012450000
C 1.0503450000 1.2327050000 0.6634040000
C -0.1198360000 0.4697240000 0.0011930000
B 2.4709510000 0.6074300000 0.6471600000
Cl 3.1045500000 -0.5467280000 -0.5054380000
H -1.6460190000 1.7697720000 0.8093390000
H -1.0858160000 2.2467850000 -0.7869730000
H -2.2814470000 0.3457640000 -1.8284770000
H -3.4033660000 1.2996190000 -0.8717640000
H -3.7125460000 -1.1686380000 -0.4943710000
H -3.2764770000 -0.3307840000 0.9870160000
H -1.3806620000 -1.9392020000 -0.8008170000
H -1.9422330000 -2.4067420000 0.7957910000
H 0.3686500000 -1.4582460000 0.8801510000
H -0.7556090000 -0.4928430000 1.8265500000
H 0.7837810000 1.5242450000 1.6873980000
H 1.2057890000 2.1958180000 0.1430190000
H 0.2044580000 0.1491970000 -0.9976060000
