16
0 1
Si 1.7678270000 -0.5011050000 0.1967400000
N 0.0202080000 -0.8778990000 0.0107280000
N -0.7120510000 0.0634610000 -0.3409900000
C -2.1373270000 -0.3037210000 -0.4671200000
C -2.9716000000 0.5696070000 0.4700270000
H -2.2636030000 -1.3723100000 -0.2635370000
H -2.4083860000 -0.0949050000 -1.5082200000
H -2.7301410000 0.3548020000 1.5140010000
H -4.0368760000 0.3799050000 0.3201100000
H -2.7789240000 1.6286950000 0.2846170000
C 2.2371440000 1.2726390000 -0.1624400000
H 1.9812410000 1.5442600000 -1.1892400000
H 3.3136960000 1.4119190000 -0.0256220000
H 1.7121580000 1.9588090000 0.5062500000
H 2.4512840000 -1.4455930000 -0.7173640000
H 2.0835650000 -0.8801990000 1.5936850000
