12
0 2
C 0.0000000000 0.0094770000 -0.1856950000
C -1.3001870000 -0.6897140000 0.0310020000
H -2.1208370000 -0.1777080000 -0.4848510000
H -1.5825240000 -0.7466070000 1.1009100000
H -1.2657090000 -1.7150210000 -0.3452500000
N -0.0000000000 1.4093540000 -0.0667680000
H -0.8355750000 1.8164540000 0.3339490000
H 0.8355750000 1.8164540000 0.3339490000
C 1.3001870000 -0.6897140000 0.0310020000
H 1.2657090000 -1.7150210000 -0.3452500000
H 1.5825240000 -0.7466070000 1.1009110000
H 2.1208370000 -0.1777080000 -0.4848510000
