12
0 1
C -1.3297590000 -0.0025010000 -0.0312040000
P 0.0119830000 -1.2884790000 0.3112200000
C 1.3240700000 0.0277160000 -0.0596770000
C 0.7084430000 1.4353570000 -0.0731220000
C -0.7728230000 1.3799820000 0.3257210000
O 2.4874900000 -0.1960110000 -0.2528660000
H -1.3876890000 2.1455060000 -0.1496820000
H -0.8848570000 1.4941040000 1.4109560000
H 0.8242750000 1.7981940000 -1.1003270000
H 1.3081170000 2.0913160000 0.5623200000
O -2.4431300000 -0.2210640000 -0.4225820000
H 0.0259350000 -1.9086620000 -0.9582830000
