18
0 1
O 0.6498560000 -0.6694570000 -0.2277050000
Si 2.0231620000 0.0473690000 0.3522820000
C -0.6717670000 -0.3109490000 -0.1132590000
O 2.3345250000 1.5138670000 -0.2943310000
C -1.6226500000 -1.3320380000 -0.1119200000
C -1.0738300000 1.0234660000 -0.0252090000
C -2.4308130000 1.3255270000 0.0727290000
C -3.3858110000 0.3120380000 0.0777800000
C -2.9743230000 -1.0168250000 -0.0179620000
H -3.7086780000 -1.8145900000 -0.0175770000
H -1.2860130000 -2.3590470000 -0.1855700000
H -2.7384670000 2.3629090000 0.1421960000
H -4.4393750000 0.5540870000 0.1522910000
H -0.3315150000 1.8125090000 -0.0500560000
H 2.6564030000 1.5621010000 -1.1984190000
O 3.2181170000 -0.9907420000 -0.0556270000
H 2.9706810000 -1.9003380000 -0.2381180000
H 1.8878740000 0.2825330000 1.7916530000
