20
0 1
C 0.8467780000 -1.1297820000 -0.0001220000
C 1.4801130000 0.1030460000 -0.0000620000
C -0.5379280000 -1.2533120000 -0.0001030000
C -1.3496070000 -0.1138160000 -0.0000280000
C -0.7213230000 1.1408810000 0.0000250000
C 0.6644800000 1.2258020000 0.0000120000
H 2.5566320000 0.1862350000 -0.0000750000
N 1.3090240000 2.5653540000 0.0000760000
O 2.5300720000 2.5989470000 -0.0000920000
O 0.5745780000 3.5407650000 0.0000050000
H -1.3088940000 2.0486540000 0.0000770000
B -2.9254390000 -0.1922190000 -0.0000090000
N 1.6794970000 -2.3583930000 -0.0002080000
H -0.9464320000 -2.2562390000 -0.0001610000
O 2.8915760000 -2.2165030000 0.0002230000
O 1.0937160000 -3.4321920000 0.0002030000
O -3.6401790000 -1.3546280000 0.0000930000
O -3.6003860000 0.9879060000 -0.0000980000
H -4.5562650000 0.8686820000 -0.0000680000
H -3.1275840000 -2.1662430000 0.0002010000
