12
0 1
C 0.0000000000 0.7084640000 0.0000000000
O -0.0152440000 -0.7083320000 0.0000000000
C 1.4446780000 1.1737580000 0.0000000000
C -1.3194010000 -1.2451210000 0.0000000000
H -0.5301400000 1.0924210000 0.8868460000
H -0.5301400000 1.0924210000 -0.8868460000
H 1.9656590000 0.8012380000 0.8850500000
H 1.4962770000 2.2658850000 0.0000000000
H 1.9656590000 0.8012380000 -0.8850500000
H -1.8867570000 -0.9387580000 0.8920160000
H -1.2235100000 -2.3316340000 0.0000000000
H -1.8867570000 -0.9387580000 -0.8920160000
