18
0 1
C 2.5031450000 0.2297570000 -0.0058960000
C 1.4847830000 1.1837520000 0.0063800000
C 0.1414050000 0.8095610000 0.0187880000
C 2.1758200000 -1.1203470000 -0.0016600000
C 0.8400720000 -1.5244710000 0.0113720000
C -0.1712660000 -0.5632790000 0.0168200000
H 3.5401910000 0.5438250000 -0.0127010000
H 1.7414740000 2.2374370000 0.0098350000
P -1.2405240000 2.0235610000 -0.1153910000
H 0.6008400000 -2.5794460000 0.0173920000
O -1.5063630000 -0.8498170000 0.0304570000
H 2.9568230000 -1.8722700000 -0.0065570000
C -1.9209320000 -2.2076370000 -0.0270640000
H -3.0092400000 -2.1856970000 -0.0348330000
H -1.5763890000 -2.7678360000 0.8489440000
H -1.5609410000 -2.6969920000 -0.9384650000
H -0.4992320000 3.1401040000 0.3498930000
H -1.8529110000 1.7819660000 1.1412580000
