10
0 1
B 0.6261150000 1.2532820000 -0.5687080000
B -0.6261960000 1.2534090000 0.5686060000
N -1.7653110000 0.4265710000 0.4301350000
C -2.5680120000 -0.3677580000 0.0280000000
O -3.3868980000 -1.1276730000 -0.3113730000
N 1.7652420000 0.4264770000 -0.4301290000
C 2.5679400000 -0.3678230000 -0.0279200000
O 3.3870860000 -1.1274730000 0.3114130000
H -0.5979350000 1.9751450000 1.5240050000
H 0.5977640000 1.9747230000 -1.5243310000
