15
0 1
C 1.9992210000 0.0000000000 -0.0028270000
C 1.3172050000 1.2131350000 -0.0119140000
C -0.0730240000 1.2081770000 -0.0273990000
C -0.7692210000 0.0000020000 -0.0355330000
C -0.0730250000 -1.2081730000 -0.0273990000
C 1.3172030000 -1.2131340000 -0.0119140000
Cl 3.7508980000 -0.0000010000 0.0150770000
H -0.6148060000 2.1452040000 -0.0422800000
H 1.8670320000 2.1449340000 -0.0096920000
C -2.2721600000 0.0000010000 0.0011470000
F -2.7929550000 1.0884550000 -0.6053710000
F -2.7415260000 -0.0000430000 1.2711110000
F -2.7929530000 -1.0884160000 -0.6054440000
H -0.6148090000 -2.1452000000 -0.0422800000
H 1.8670290000 -2.1449330000 -0.0096920000
