17
0 1
C -0.0024020000 0.0571270000 0.4680920000
C 0.6382020000 -1.1751430000 0.2907400000
C 1.9660530000 -1.2365130000 -0.1225860000
C 2.6783050000 -0.0644580000 -0.3697100000
C 2.0517480000 1.1678970000 -0.1999690000
C 0.7230060000 1.2262540000 0.2136680000
P -2.6147020000 -0.1526960000 -0.5621440000
H 2.4457900000 -2.2007120000 -0.2493720000
H 3.7130280000 -0.1115920000 -0.6895930000
H 2.5980690000 2.0859220000 -0.3863360000
H 0.2435380000 2.1909610000 0.3470470000
H 0.0913190000 -2.0932080000 0.4805640000
C -1.4470470000 0.1268640000 0.8971820000
H -1.6607980000 1.0820930000 1.3779460000
H -1.6684610000 -0.6647710000 1.6183630000
H -2.3860570000 1.0912130000 -1.2062150000
H -3.8030920000 0.2983740000 0.0752540000
