9
0 2
F 2.4801800000 -0.3724520000 0.2920420000
B 1.4908300000 -0.1816930000 -0.5357010000
C 0.0290620000 0.2663360000 -0.1369120000
O -0.2318470000 1.4345900000 0.0455360000
O -0.8690250000 -0.7341090000 -0.1228060000
C -2.2379520000 -0.3533610000 0.1445080000
H -2.8078930000 -1.2778440000 0.1001230000
H -2.5875180000 0.3534470000 -0.6090010000
H -2.3200470000 0.1032290000 1.1315940000
