15
0 1
C -1.0203960000 -0.3261880000 -0.0164840000
P 0.7008710000 0.1363600000 -0.6170400000
C 1.6615500000 -1.1869210000 0.2444630000
H 1.5530530000 -1.1401220000 1.3305160000
H 2.7168790000 -1.1023650000 -0.0225680000
H 1.2884820000 -2.1524180000 -0.0988750000
O -1.2807070000 -1.4765860000 0.2597620000
C -2.0803580000 0.7616160000 0.0004680000
H -2.0344160000 1.3716980000 -0.9058150000
H -1.9138370000 1.4274120000 0.8534090000
H -3.0651530000 0.3028570000 0.0948910000
C 1.0616230000 1.6250500000 0.4401590000
H 0.4548860000 2.4712200000 0.1119710000
H 2.1092960000 1.9001500000 0.2975990000
H 0.8888910000 1.4475080000 1.5047420000
