14
0 1
O -1.2551660000 -1.0629350000 0.0505040000
C -2.5746430000 -0.7551210000 0.0611050000
C -0.5731470000 0.1235650000 -0.0217230000
C -2.7598660000 0.5919180000 -0.0001870000
C -1.4540780000 1.1661580000 -0.0534220000
H -3.7051890000 1.1100630000 -0.0090490000
H -3.2495770000 -1.5931190000 0.1133780000
H -1.1865830000 2.2085980000 -0.1131360000
P 1.2023500000 0.1423590000 -0.0333130000
O 1.7191810000 -0.7271220000 1.2249110000
O 1.7422860000 1.5045960000 -0.0765100000
H 1.9368770000 -0.1572310000 1.9725040000
O 1.5313380000 -0.8722180000 -1.2205470000
H 2.4385120000 -1.2013650000 -1.2055000000
