18
0 1
Cl 1.2174800000 -1.6952930000 -0.6860380000
N -1.3416030000 -0.0390880000 0.0534530000
N 0.4459970000 1.2747100000 0.1729090000
C -0.1430740000 0.1430950000 0.7869060000
C -1.4388020000 0.9308470000 -0.9540380000
H -2.2624620000 0.9381490000 -1.6467910000
C -0.3403080000 1.7026310000 -0.9023100000
H -0.0205510000 2.5014210000 -1.5490910000
C -2.4321650000 -0.8471920000 0.5520540000
H -2.0260360000 -1.7379240000 1.0326400000
H -3.0551300000 -1.1733530000 -0.2827470000
C 1.7397370000 1.7910340000 0.5568030000
H 1.8019790000 2.8484760000 0.2906390000
H 2.5652010000 1.2539000000 0.0772940000
H 1.8633760000 1.7040680000 1.6397580000
O 0.7159720000 -1.0512410000 0.8903430000
H -0.2690860000 0.2314630000 1.8859400000
H -3.0653100000 -0.3081340000 1.2712270000
