7
0 1
Si -0.8970850000 -0.0000000000 0.0005940000
P 1.3372530000 -0.0000000000 -0.6197630000
F -1.6052550000 -1.2822090000 -0.6086010000
F -1.1303310000 0.0000000000 1.5659660000
F -1.6052550000 1.2822090000 -0.6086020000
F 1.7537750000 1.2364690000 0.3416250000
F 1.7537750000 -1.2364690000 0.3416250000
