8
0 2
C 1.4020260000 0.4326270000 0.0111440000
P -0.0840520000 -0.6735310000 -0.0164320000
H 1.4255980000 1.0358290000 0.9238970000
H 1.4277350000 1.1029210000 -0.8551710000
H 2.2995420000 -0.1891560000 -0.0157630000
N -1.2794190000 0.5482050000 0.0701420000
H -1.1093200000 1.4661330000 -0.3203910000
H -2.2389940000 0.2540360000 -0.0439530000
