14
0 1
C 2.6627640000 1.0696720000 -0.7233490000
C 1.2819510000 1.0769900000 -0.5416010000
C 3.4047580000 0.0303100000 -0.1734010000
C 2.7360570000 -0.9643450000 0.5407220000
N 1.4151840000 -0.9693130000 0.7214590000
C 0.6975820000 0.0367150000 0.1849110000
H 3.1490520000 1.8610330000 -1.2825150000
H 0.6696600000 1.8714560000 -0.9509190000
Si -1.1265800000 -0.1678260000 0.5394800000
Cl -2.1167930000 1.6257280000 0.1896800000
Cl -1.9437910000 -1.6091640000 -0.7022400000
H 4.4811280000 -0.0138550000 -0.2898610000
H 3.2842350000 -1.7893660000 0.9863370000
H -1.3870140000 -0.5721630000 1.9238510000
