13
0 1
P 0.4970820000 0.0000000000 -0.6474470000
C 1.1699970000 1.4348580000 0.3437390000
H 0.9735100000 1.3543830000 1.4160450000
H 0.7369320000 2.3666330000 -0.0271260000
H 2.2509030000 1.4884540000 0.1895850000
Si -1.6441200000 0.0000000000 0.1154970000
C 1.1699970000 -1.4348580000 0.3437390000
H 2.2509030000 -1.4884540000 0.1895850000
H 0.7369320000 -2.3666330000 -0.0271260000
H 0.9735100000 -1.3543830000 1.4160450000
H -2.3402000000 1.2061230000 -0.3940540000
H -1.7208100000 0.0000000000 1.6009830000
H -2.3402000000 -1.2061230000 -0.3940530000
