10
0 2
C -2.0350680000 -0.5511740000 0.1333790000
C -1.1143680000 0.4914300000 -0.3941530000
H -2.0384960000 -0.5765360000 1.2269510000
H -1.7317680000 -1.5524890000 -0.2088360000
H -3.0592260000 -0.3963100000 -0.2173010000
C 0.0985510000 0.8867310000 0.3014570000
H -1.2328270000 0.8137730000 -1.4237460000
H 0.0228520000 0.8477520000 1.3857960000
H 0.5174210000 1.8314900000 -0.0325510000
Cl 1.5192560000 -0.3488000000 -0.0573180000
