16
0 1
B 2.0986740000 0.0000070000 1.0721580000
Si 1.0020240000 -0.0000350000 -0.6214380000
C -0.8875700000 -0.0000100000 -0.3999860000
C -1.3791420000 -1.2710390000 0.3161550000
H -0.9802850000 -1.3345410000 1.3343030000
H -1.0823660000 -2.1805740000 -0.2141650000
C -1.3791190000 1.2710770000 0.3160680000
H -2.4719320000 -1.2774270000 0.3960630000
H -1.3066680000 -0.0000420000 -1.4149670000
H -2.4719090000 1.2774900000 0.3959750000
H -0.9802610000 1.3346430000 1.3342110000
H -1.0823270000 2.1805700000 -0.2143160000
H 3.2892640000 0.0001330000 0.9936390000
H 1.6319040000 0.0001660000 2.1699090000
H 1.4039170000 -1.1962020000 -1.4173190000
H 1.4039390000 1.1960700000 -1.4174020000
