21
0 1
S 3.0184290000 -1.1017900000 -0.2041250000
Si 2.1491600000 0.8391150000 0.2410180000
H 2.2262760000 -1.7959070000 0.6325110000
C 0.3870940000 1.0471540000 -0.3839880000
C -0.6574410000 0.1110260000 0.2487710000
H 0.3941700000 0.9239630000 -1.4733940000
H 0.1111700000 2.0942980000 -0.1964070000
C -2.0839200000 0.3582130000 -0.2596720000
H -0.6426210000 0.2251240000 1.3400960000
H -0.3851350000 -0.9317580000 0.0460190000
C -3.1273480000 -0.5757100000 0.3638520000
H -2.1008190000 0.2445970000 -1.3511190000
H -2.3628340000 1.4004640000 -0.0578740000
C -4.5479640000 -0.3224310000 -0.1488330000
H -3.1072880000 -0.4621900000 1.4545720000
H -2.8464620000 -1.6163490000 0.1614210000
H -4.8710740000 0.7001240000 0.0699010000
H -5.2669030000 -1.0035950000 0.3142940000
H -4.6081760000 -0.4628570000 -1.2325400000
H 3.0589700000 1.7863210000 -0.4413150000
H 2.1950980000 1.0692830000 1.7048010000
