30
0 1
Si -1.1392360000 2.1108170000 -0.3202960000
Si 1.1392360000 2.1108170000 0.3202960000
C 1.9568810000 0.4221120000 0.1673080000
H 1.2841290000 2.5245710000 1.7383540000
H 1.8610660000 3.1091470000 -0.5113790000
C 1.9223880000 -0.2785410000 -1.0480500000
C 2.6005880000 -0.1933780000 1.2481340000
C 3.1900950000 -1.4518500000 1.1325490000
C 3.1393930000 -2.1213690000 -0.0868530000
C 2.5057180000 -1.5378770000 -1.1812850000
H 2.6404240000 0.3251590000 2.2004440000
H 3.6845350000 -1.9035400000 1.9846000000
C -1.9568810000 0.4221120000 -0.1673080000
H -1.2841290000 2.5245710000 -1.7383540000
H -1.8610660000 3.1091470000 0.5113790000
C -1.9223880000 -0.2785410000 1.0480500000
C -2.6005870000 -0.1933790000 -1.2481340000
C -3.1900950000 -1.4518500000 -1.1325490000
C -3.1393930000 -2.1213690000 0.0868530000
C -2.5057180000 -1.5378770000 1.1812850000
H -2.6404240000 0.3251590000 -2.2004440000
H -3.6845340000 -1.9035410000 -1.9846000000
O 1.2892690000 0.3446650000 -2.0924140000
O -1.2892690000 0.3446660000 2.0924140000
H 3.5927480000 -3.1006000000 -0.1928710000
H -3.5927480000 -3.1006000000 0.1928710000
H 2.4651990000 -2.0585420000 -2.1339360000
H -2.4651990000 -2.0585420000 2.1339360000
H 1.2633280000 -0.2395370000 -2.8571180000
H -1.2633280000 -0.2395370000 2.8571180000
