13
0 1
C -1.2115450000 0.4451300000 -0.1369370000
B -0.0058370000 -0.5401440000 -0.1352920000
Si 1.9268440000 0.0389270000 0.0485560000
C -2.6162900000 -0.1135440000 0.1382970000
H -1.1626000000 0.8202920000 -1.1817340000
H -1.0190560000 1.3472510000 0.4567140000
H -2.8348650000 -0.9670900000 -0.5087170000
H -3.3932900000 0.6392450000 -0.0224040000
H -2.7037360000 -0.4582470000 1.1724000000
H -0.2115640000 -1.7100490000 -0.2956110000
H 2.1246380000 1.5115720000 0.0246120000
H 2.7819310000 -0.5563480000 -1.0117150000
H 2.4389150000 -0.4603980000 1.3549670000
