12
0 1
Cl -1.2377940000 1.5156710000 0.0000020000
Cl -1.2377950000 -1.5156710000 -0.0000090000
N 1.1012310000 -0.0000000000 0.0000020000
B -0.2891900000 0.0000000000 -0.0000010000
C 1.9171270000 1.2150210000 0.0000110000
H 2.5596540000 1.2364990000 0.8868460000
H 1.2890870000 2.1010180000 0.0000090000
H 2.5596650000 1.2365030000 -0.8868170000
C 1.9171270000 -1.2150220000 0.0000010000
H 1.2890870000 -2.1010180000 -0.0000090000
H 2.5596530000 -1.2365070000 0.8868370000
H 2.5596660000 -1.2364950000 -0.8868260000
