18
0 1
C -0.4239220000 -1.0194830000 0.5484410000
C 0.8758370000 -0.2416200000 0.7816810000
C 1.8010630000 -0.1710990000 -0.4372220000
H 1.4086430000 -0.7250670000 1.6115000000
H 0.6436220000 0.7727680000 1.1263520000
C 3.0860330000 0.6163940000 -0.1671280000
H 1.2588100000 0.2804430000 -1.2734640000
H 2.0558220000 -1.1910730000 -0.7509810000
H 2.8643500000 1.6512850000 0.1121440000
H 3.7283360000 0.6433840000 -1.0513670000
H 3.6636630000 0.1708270000 0.6490770000
S -1.6100430000 -0.2733550000 -0.6356690000
H -0.9546640000 -1.1834630000 1.4903500000
H -0.2058290000 -2.0057570000 0.1285400000
C -2.2542230000 1.1113050000 0.3584010000
H -1.4787750000 1.8434550000 0.5871530000
H -2.7095090000 0.7484860000 1.2821510000
H -3.0225030000 1.5954170000 -0.2457940000
