17
0 1
C -1.0619360000 -0.5082710000 -0.5625680000
S 0.5791150000 -1.1236020000 -0.0360160000
C 1.5121020000 0.4143910000 -0.0689010000
C 2.9552330000 0.2550640000 0.3612800000
C -1.9110790000 0.0482130000 0.5813390000
H -1.5484830000 -1.3593360000 -1.0452990000
H -0.8722200000 0.2577960000 -1.3164370000
O 1.0293230000 1.4681630000 -0.3990050000
H 3.2380450000 -0.7866460000 0.5147600000
H 3.1006190000 0.8082050000 1.2929180000
H 3.5976110000 0.7054610000 -0.3984440000
C -3.2792520000 0.5354170000 0.0921790000
H -1.3696640000 0.8744060000 1.0493750000
H -2.0401890000 -0.7228380000 1.3474670000
H -3.1733950000 1.3308520000 -0.6512010000
H -3.8706800000 0.9321460000 0.9212990000
H -3.8524710000 -0.2766010000 -0.3661110000
