16
0 1
C 0.1091520000 1.2055510000 0.3824870000
C -1.2534480000 1.2128710000 0.1200210000
C -1.9441730000 -0.0000010000 -0.0123310000
C -1.2534470000 -1.2128710000 0.1200250000
C 0.1091530000 -1.2055470000 0.3824920000
C 0.8050350000 0.0000030000 0.5181740000
H 0.6398560000 2.1460040000 0.4804310000
H -1.7892480000 2.1482160000 0.0183400000
C 2.2750480000 0.0000040000 0.8056820000
H 0.6398590000 -2.1459990000 0.4804390000
H 2.5852950000 0.8893860000 1.3492240000
Cl 3.2672570000 -0.0000030000 -0.7352130000
H 2.5852950000 -0.8893720000 1.3492330000
H -1.7892440000 -2.1482170000 0.0183480000
C -3.3501160000 -0.0000020000 -0.2775390000
N -4.4854850000 -0.0000020000 -0.4902090000
