11
0 1
C -0.5223830000 2.0696700000 -0.5643830000
Si -0.3027610000 0.5211550000 0.4377790000
H -0.5597070000 1.8455870000 -1.6327180000
H 0.3273450000 2.7325580000 -0.3790240000
H -1.4412300000 2.5900380000 -0.2845680000
C 1.3953830000 -0.2735440000 0.0370080000
Cl -1.7983750000 -0.8843530000 -0.0209020000
O 2.3709030000 0.4105800000 0.2139160000
O 1.5024570000 -1.5393110000 -0.4266100000
H 0.6194310000 -1.9285650000 -0.5028640000
H -0.3596900000 0.7513170000 1.8914120000
