14
0 1
C 0.0653030000 -1.1149820000 0.8631430000
S 1.4371610000 -0.7985730000 -0.3020230000
C 1.2767210000 1.0077080000 -0.1557090000
S -0.4980910000 1.4488010000 0.0817120000
H 1.6373880000 1.4564210000 -1.0806290000
H 1.8577140000 1.3814650000 0.6870000000
C -1.1374340000 -0.2527980000 0.4628560000
C -1.9517150000 -0.8279890000 -0.6954870000
H -1.3186230000 -0.9965850000 -1.5683330000
H -2.7527920000 -0.1452630000 -0.9844330000
H -2.4071770000 -1.7804230000 -0.4011990000
H 0.3919340000 -0.8842810000 1.8789360000
H -0.1721600000 -2.1797150000 0.8048740000
H -1.7786590000 -0.1268950000 1.3399430000
