7
0 1
H 1.6005130000 -1.8931620000 0.0000000000
H 2.7042700000 -0.1757640000 0.0000000000
B 1.6343050000 -0.7034850000 0.0000000000
Si -0.0000000000 0.4567420000 0.0000000000
F -1.3836110000 -0.3839320000 0.0000000000
H -0.0119040000 1.3236750000 1.2049770000
H -0.0119040000 1.3236750000 -1.2049770000
