13
0 1
C 2.0180360000 -0.6005570000 0.2540580000
N 0.7043860000 -0.9399680000 0.3815940000
Si -0.6991180000 0.0648820000 -0.0303650000
N -1.8018100000 -0.9578900000 -0.8097950000
O 2.4367950000 0.4524380000 -0.2024620000
O -1.5115620000 0.5553310000 1.3063010000
H -2.7912030000 -0.8032110000 -0.6883930000
H -1.5889800000 -1.3810930000 -1.7001400000
H 0.5410050000 -1.8587120000 0.7719960000
H -1.2855080000 1.4216110000 1.6521380000
O -0.0676780000 1.3223860000 -0.8447810000
H 0.9089160000 1.3408360000 -0.8135900000
H 2.7167250000 -1.3806720000 0.6036880000
