14
0 1
F -0.5166520000 -1.8917220000 -0.2074120000
O -0.5078150000 -0.6264570000 -0.9121120000
C -0.3267780000 0.3972190000 0.0917930000
O 0.8659780000 0.2069530000 0.7875440000
O -1.3372000000 0.3942520000 1.0200070000
C 2.0420480000 -0.0705320000 0.0249450000
H 1.9368410000 -0.9996170000 -0.5381450000
H 2.8449500000 -0.1717870000 0.7534230000
H 2.2852150000 0.7492710000 -0.6588100000
C -0.4069250000 1.6748720000 -0.7378350000
H 0.3134630000 1.6682020000 -1.5550600000
H -0.1926000000 2.5075150000 -0.0675710000
H -1.4112590000 1.7856210000 -1.1435660000
H -1.1445160000 -0.3210360000 1.6394980000
