8
0 1
Cl -1.8575800000 0.8016110000 0.0099940000
S -0.7223800000 -0.9632030000 -0.0812380000
O 0.6924210000 -0.5982450000 0.5120450000
O 1.6416300000 -0.0187130000 -0.5834580000
C 2.6283350000 0.6843140000 0.1393580000
H 3.2970700000 1.0660140000 -0.6386850000
H 3.1935120000 0.0238930000 0.8051300000
H 2.2039410000 1.5237290000 0.6986300000
