15
0 2
Si 0.7658340000 -0.0179150000 0.3858130000
O 1.4484370000 -1.3936870000 -0.2305650000
C -0.9985660000 0.0002610000 -0.3325990000
C -1.7288520000 1.3164150000 -0.0273120000
C -1.8074720000 -1.2305700000 0.1047280000
H -0.8213510000 -0.0625060000 -1.4161060000
H -1.9791830000 -1.2289080000 1.1861450000
H -1.2930460000 -2.1598380000 -0.1503650000
H -2.7884740000 -1.2430940000 -0.3831560000
H -1.8975430000 1.4392630000 1.0478500000
H -2.7088140000 1.3400760000 -0.5159040000
H -1.1641780000 2.1841540000 -0.3802000000
H 2.4071170000 -1.4573550000 -0.2212730000
O 1.6817600000 1.2519070000 -0.1907320000
H 1.6915600000 2.0566200000 0.3330930000
