20
0 1
C -2.1726310000 0.5214080000 -0.1330070000
O -1.5501990000 1.4241020000 -0.6035660000
O -1.7729730000 -0.8078810000 -0.1811370000
S -0.2565300000 -1.1516020000 -0.8481710000
C 0.7921610000 -0.6379050000 0.5229870000
O 0.3450320000 -0.1530580000 1.5257300000
C -3.4811590000 0.6051740000 0.6053700000
H -3.8852430000 1.6101730000 0.5040010000
H -3.2998010000 0.3835910000 1.6597500000
H -4.1864000000 -0.1352040000 0.2255310000
C 2.2633710000 -0.8629560000 0.2328970000
C 3.0780090000 0.4328180000 0.4047650000
H 2.3943590000 -1.2732490000 -0.7755200000
H 2.6090530000 -1.6233670000 0.9413710000
C 2.7370370000 1.5088140000 -0.6298970000
H 4.1403930000 0.1775430000 0.3446660000
H 2.8985780000 0.8133180000 1.4138580000
H 2.9304200000 1.1560610000 -1.6477830000
H 3.3417650000 2.4044930000 -0.4685960000
H 1.6857480000 1.8028560000 -0.5734450000
