9
0 1
O 0.9991590000 0.6877280000 -0.4990780000
O -0.1073040000 -0.1056790000 -0.9815240000
C 1.9973680000 -0.1527810000 -0.0673010000
S -1.3188920000 -0.1276850000 0.1393640000
F -1.8020250000 1.3809520000 -0.0343320000
O -2.2905180000 -0.9651160000 -0.4563490000
O -0.7933190000 -0.2386200000 1.4494930000
O 2.0163110000 -1.3224150000 -0.0124290000
F 2.9712950000 0.6759890000 0.2757840000
