18
0 1
Si 0.6702280000 1.7414650000 0.0293410000
C -1.2122950000 1.5112940000 -0.1977560000
P -1.7552450000 -0.1831590000 0.0648560000
O -3.3455100000 -0.0540900000 0.1055510000
O -1.4925560000 -0.9827100000 -1.2748070000
H -3.7846630000 -0.8829700000 0.3355600000
H -0.5263470000 -1.1906720000 -1.3898130000
O -1.1468460000 -0.7851410000 1.2801790000
P 1.6885080000 -0.3018400000 -0.0472520000
H 0.9507410000 2.4002050000 1.3208020000
H 1.2073320000 2.5450960000 -1.0888700000
O 3.2653460000 -0.0250430000 -0.1121830000
H 3.6910630000 -0.5406870000 -0.8092390000
O 1.5343490000 -0.9932720000 1.3717660000
H 0.5689200000 -1.0955190000 1.5679970000
O 1.1878130000 -1.0834970000 -1.2168110000
H -1.5186800000 1.8391430000 -1.1932970000
H -1.7174970000 2.1421360000 0.5389890000
