10
0 1
Cl 1.4433150000 1.4501360000 0.0405730000
S -1.1038200000 -0.0000000000 -0.1557730000
O -1.5706470000 -1.2597160000 -0.6569200000
N 0.6417370000 -0.0000000000 -0.5792640000
C -1.1846090000 0.0000000000 1.6321920000
H -2.2492050000 -0.0000000000 1.8684950000
H -0.7082580000 -0.9027360000 2.0084100000
Cl 1.4433150000 -1.4501360000 0.0405730000
O -1.5706470000 1.2597160000 -0.6569210000
H -0.7082590000 0.9027370000 2.0084100000
