19
0 1
C -0.6190470000 1.3096380000 -0.0223240000
C 0.7669400000 1.4268490000 -0.0108110000
C -1.2050900000 0.0470720000 -0.0323280000
C -0.4010730000 -1.0979070000 -0.0299490000
C 0.9783230000 -0.9788370000 -0.0180420000
C 1.5827610000 0.2893520000 -0.0070190000
H 1.2204590000 2.4119500000 -0.0065740000
H -1.2417480000 2.1947150000 -0.0304450000
H -0.8616180000 -2.0780230000 -0.0464160000
H 1.6056880000 -1.8607950000 -0.0194390000
C 3.0384790000 0.4582520000 0.0044150000
N 3.8239500000 -0.5478910000 0.0057610000
H 3.4444860000 1.4711650000 0.0119850000
O 5.1585630000 -0.1505000000 0.0176890000
H 5.6331340000 -0.9882950000 0.0173390000
C -2.7004600000 -0.1013540000 0.0030330000
F -3.3368360000 1.0173980000 -0.4042130000
F -3.1250670000 -1.1144730000 -0.7849780000
F -3.1471580000 -0.3729090000 1.2525090000
