8
0 1
P 0.5082550000 -0.7142660000 -0.0865330000
C 1.6956500000 0.7150940000 -0.0201770000
H 1.4643510000 1.4336860000 0.7667050000
H 1.6891400000 1.2261350000 -0.9844650000
H 2.6986690000 0.3103670000 0.1484430000
S -1.3974040000 0.2939940000 0.0797050000
H -1.8852490000 -0.1928020000 -1.0730160000
H 0.5938310000 -1.0578700000 1.2861220000
