10
0 1
C -0.6104090000 -0.0352990000 0.0000160000
C 0.9072120000 0.3080100000 0.0002310000
O 1.2493670000 1.4579170000 -0.0000010000
C 1.8275710000 -0.8827800000 -0.0000180000
H 1.6341700000 -1.5034500000 -0.8792260000
H 1.6344330000 -1.5035860000 0.8791490000
H 2.8610620000 -0.5417480000 -0.0001480000
F -0.9175810000 -0.7740740000 1.0898490000
F -0.9172540000 -0.7742270000 -1.0898060000
F -1.3730370000 1.0533960000 -0.0001700000
