20
0 1
Cl -2.8323790000 -0.1553170000 -0.4891550000
O -0.2425790000 -2.3719630000 -0.2374630000
O -0.5742360000 2.4886990000 -0.0050480000
P -1.2578390000 -0.0398230000 0.8680730000
N 1.0802510000 0.8897910000 -0.0364310000
C -0.1997520000 1.3479710000 0.1486580000
C -0.0290950000 -1.2409920000 0.0974240000
C 1.3611310000 -0.5616040000 -0.0040690000
C 2.1317220000 1.8448400000 -0.3765160000
H 2.3877820000 1.7969800000 -1.4386750000
H 1.7581470000 2.8426130000 -0.1559190000
C 2.0624650000 -1.0348960000 -1.2839480000
H 3.0869110000 -0.6597090000 -1.3316190000
H 2.0913510000 -2.1245500000 -1.2946410000
H 1.5217370000 -0.6987560000 -2.1711500000
H 3.0289080000 1.6518540000 0.2155110000
C 2.1712070000 -0.9517300000 1.2499820000
H 3.1578700000 -0.4827660000 1.2301200000
H 2.3098380000 -2.0342310000 1.2824950000
H 1.6621820000 -0.6376540000 2.1643480000
