12
0 1
Cl -2.6315530000 0.6375930000 0.0000020000
S -1.3788980000 -1.0057800000 -0.0000030000
C 0.2525840000 -0.3076840000 -0.0000010000
C 0.5650000000 1.0486270000 -0.0000040000
C 1.3002060000 -1.2366100000 0.0000030000
C 2.6039090000 -0.7556750000 0.0000040000
C 1.9112680000 1.4096380000 -0.0000020000
N 2.9252970000 0.5423130000 0.0000010000
H -0.2053350000 1.8069050000 -0.0000070000
H 2.1810530000 2.4621030000 -0.0000040000
H 1.1144550000 -2.3048540000 0.0000060000
H 3.4337190000 -1.4567210000 0.0000070000
