15
0 1
C 0.1867110000 2.0763330000 0.0046710000
C -1.0334500000 1.4027030000 -0.0175800000
C -1.0846860000 0.0029460000 -0.0125170000
C 1.3786570000 1.3645600000 0.0119730000
C 1.3438330000 -0.0372970000 0.0012950000
C 0.1156550000 -0.7117500000 -0.0067830000
H 0.2061300000 3.1597570000 0.0062020000
H -1.9565190000 1.9718040000 -0.0443580000
P -2.7507310000 -0.8067920000 -0.0486290000
H 2.3322260000 1.8773650000 0.0202540000
C 2.5652650000 -0.7841230000 0.0022980000
N 3.5503440000 -1.3872840000 0.0032590000
H 0.1118670000 -1.7946100000 -0.0068880000
H -2.7978360000 -1.1973940000 1.3161910000
H -2.3192180000 -2.0842930000 -0.4849280000
