7
0 2
S 1.7024630000 0.1145480000 0.1430730000
P -0.3200310000 -0.0926890000 -0.1086870000
O -0.5308860000 -1.2466900000 -1.0006430000
O -1.0754880000 -0.2009780000 1.3077470000
H -1.0507650000 -1.0980780000 1.6644500000
O -0.8464310000 1.3412730000 -0.5586550000
H -1.7657460000 1.5068000000 -0.3109040000
