18
0 2
O 2.0585080000 0.4069000000 -0.0003800000
O -0.1804930000 1.2883870000 0.0496100000
C 1.5691160000 -0.9542320000 -0.0408330000
C 0.1773380000 -1.0223220000 -0.6598730000
C -0.8104850000 -0.0384960000 -0.0053320000
C -2.0632380000 0.1318410000 -0.8594740000
C -1.1731120000 -0.4321010000 1.4282170000
B 1.1620360000 1.4156450000 0.0472550000
H 1.5797820000 -1.3482260000 0.9795500000
H 2.2856550000 -1.5285710000 -0.6300550000
H -0.2106230000 -2.0435020000 -0.5820570000
H 0.2514100000 -0.7843120000 -1.7261090000
H -2.6054940000 -0.8140970000 -0.9457870000
H -1.7971610000 0.4745380000 -1.8616280000
H -2.7259410000 0.8739860000 -0.4095550000
H -0.2848910000 -0.5350690000 2.0552780000
H -1.8073510000 0.3375220000 1.8722440000
H -1.7173850000 -1.3809400000 1.4417760000
