9
0 1
C -1.1244370000 0.1344110000 0.0000010000
F -1.8196940000 -0.2614810000 1.0827300000
F -1.8197050000 -0.2615230000 -1.0827060000
F -1.0747250000 1.4740150000 -0.0000260000
C 0.2442370000 -0.4753630000 0.0000050000
C 1.4112790000 0.1604520000 -0.0000070000
F 0.2304250000 -1.8190920000 0.0000250000
F 1.5682660000 1.4629650000 -0.0000250000
F 2.5613800000 -0.4745510000 0.0000010000
