15
0 1
C -2.4071380000 1.1192200000 -0.4772180000
C -1.0165820000 1.0994330000 -0.4705450000
C -0.3220400000 -0.0282760000 -0.0044120000
C -3.1257650000 0.0265410000 0.0026930000
C -2.4454940000 -1.0966720000 0.4716980000
C -1.0570760000 -1.1313020000 0.4566760000
C 1.1592710000 -0.0971280000 -0.0223690000
S 2.0769550000 1.3568240000 0.3723040000
S 2.0076010000 -1.4506160000 -0.4028670000
H 1.0668350000 2.1260660000 0.8228940000
H -2.9290870000 1.9876440000 -0.8622330000
H -4.2095180000 0.0477360000 0.0066400000
H -0.4696220000 1.9430530000 -0.8735020000
H -2.9986590000 -1.9497850000 0.8472390000
H -0.5238960000 -2.0049480000 0.8088340000
