20
0 1
Si -0.2943520000 1.2055420000 0.0000000000
C 0.4157350000 0.3151560000 1.4973700000
C 0.4157350000 -1.2178940000 1.2953200000
C 1.1125080000 -1.6737420000 -0.0000000000
C 0.4157350000 -1.2178940000 -1.2953200000
C 0.4157350000 0.3151560000 -1.4973700000
N -2.0172460000 1.0040610000 -0.0000000000
H -2.5456280000 1.2430830000 0.8280030000
H -2.5456280000 1.2430830000 -0.8280030000
H -0.1250240000 0.5812130000 2.4131070000
H 1.4452110000 0.6679280000 1.6434430000
H -0.6180090000 -1.5824490000 1.2852580000
H 0.9029630000 -1.7012020000 2.1499520000
H 1.1723070000 -2.7675760000 -0.0000000000
H 2.1498850000 -1.3118510000 0.0000000000
H -0.6180090000 -1.5824490000 -1.2852580000
H 0.9029630000 -1.7012020000 -2.1499520000
H 1.4452110000 0.6679280000 -1.6434430000
H -0.1250240000 0.5812130000 -2.4131070000
H 0.1477420000 2.6315730000 0.0000000000
