13
0 1
Si -1.3318410000 0.7430100000 -0.0795700000
P 0.7678660000 -0.1068020000 0.1083140000
O 1.0832030000 -0.8152450000 1.3638250000
O 0.8825480000 -0.9641280000 -1.2518080000
C -2.5883280000 -0.6334900000 0.1087670000
H -2.4938180000 -1.3583270000 -0.7029570000
H -3.6032770000 -0.2271820000 0.0908190000
H -2.4435680000 -1.1578350000 1.0560960000
O 1.7987680000 1.1175850000 -0.1825080000
H 2.2687930000 1.3602120000 0.6253120000
H 1.6898890000 -1.4942780000 -1.3035130000
H -1.4456670000 1.4379920000 -1.3810070000
H -1.4307550000 1.7345560000 1.0158550000
