17
0 1
O 0.6386840000 -1.3084910000 -0.5403610000
C 1.6192460000 -0.9765860000 0.4357700000
C 1.9847680000 0.4902110000 0.2224840000
H 2.4645280000 -1.6461350000 0.2673510000
H 1.2376010000 -1.1322250000 1.4527290000
S 0.3730130000 1.2998060000 -0.1035340000
H 2.6483060000 0.6159930000 -0.6339790000
H 2.4382440000 0.9353080000 1.1087990000
C -0.3996010000 -0.3476220000 -0.5796000000
C -1.5804970000 -0.7177160000 0.3160680000
H -0.7207560000 -0.2811500000 -1.6213590000
C -2.7597030000 0.2496950000 0.1942960000
H -1.2431700000 -0.7710180000 1.3553700000
H -1.8912920000 -1.7270870000 0.0227620000
H -2.4852150000 1.2550490000 0.5246490000
H -3.5991890000 -0.0836430000 0.8088030000
H -3.1120090000 0.3180590000 -0.8397940000
