7
0 1
Cl 1.4359440000 -1.5222400000 -0.1522580000
Cl 1.4358030000 1.5223230000 -0.1521850000
B 0.6121100000 -0.0000030000 0.0804610000
C -0.9027660000 -0.0000850000 0.5624140000
O -1.1692520000 -0.0000990000 1.7382320000
S -2.2295210000 -0.0000100000 -0.6717260000
H -1.4373170000 0.0000650000 -1.7595060000
