11
0 2
B 0.4739940000 1.8499400000 0.2564450000
P 0.0522290000 0.2135360000 -0.3177620000
C 1.1718520000 -1.1917710000 0.1405840000
H 1.0522240000 -1.4771360000 1.1877730000
H 2.2045700000 -0.8853270000 -0.0298190000
H 0.9575250000 -2.0569930000 -0.4913930000
C -1.6423730000 -0.3448020000 0.1515290000
H -2.3342390000 0.4836090000 -0.0029990000
H -1.6900680000 -0.6575740000 1.1967990000
H -1.9482790000 -1.1791320000 -0.4833800000
H 1.4279850000 2.5392580000 0.3545500000
