15
0 1
Cl 2.9422110000 -0.4454840000 -0.2024460000
O 1.2773170000 -0.8024710000 0.1744590000
C 0.4090820000 0.2557810000 0.1024860000
C -0.9666990000 -0.0444910000 0.0210910000
C -1.9145610000 0.9726770000 -0.0344870000
C -1.5216600000 2.3021250000 -0.0044670000
C 0.7907270000 1.5968830000 0.1213120000
H 1.8418810000 1.8426490000 0.1658890000
C -0.1645830000 2.6056350000 0.0730650000
H 0.1627280000 3.6384110000 0.0948380000
H -2.2637340000 3.0891810000 -0.0428720000
N -1.4625680000 -1.4320840000 0.0104770000
O -2.5764980000 -1.6221770000 -0.4629920000
O -0.7458330000 -2.2989670000 0.4867960000
H -2.9542100000 0.6848270000 -0.1097320000
