10
0 1
Cl 2.6251860000 -0.1104280000 -0.2762630000
S 0.9097210000 -1.0452150000 0.4265250000
C -0.3066450000 -0.0167740000 -0.4331380000
N -1.6434280000 -0.7277540000 -0.3092920000
O -1.6750350000 -1.6823890000 0.4489160000
O -2.5531550000 -0.2745930000 -0.9654760000
N -0.4884850000 1.3748410000 0.2053180000
H -0.0828610000 0.1453300000 -1.4830140000
O -1.1323510000 1.4293450000 1.2310790000
O 0.0683450000 2.2809380000 -0.3793010000
