19
0 1
C -1.2098170000 0.0416260000 -0.0356450000
C -0.6661930000 1.3289840000 -0.0223920000
C 0.7082180000 1.5075110000 -0.0086390000
C -0.3633400000 -1.0642860000 -0.0333610000
C 1.0169260000 -0.8920860000 -0.0199460000
C 1.5573850000 0.3962890000 -0.0058020000
H -0.7804040000 -2.0630110000 -0.0504410000
H 1.6659140000 -1.7603420000 -0.0231880000
O 2.8975530000 0.6363540000 0.0070010000
Si 4.2004290000 -0.4025450000 0.0125970000
H -1.3218550000 2.1907830000 -0.0323740000
H 1.1475280000 2.4969370000 -0.0029680000
C -2.6984620000 -0.1395860000 0.0023810000
F -3.3434770000 0.8123380000 -0.7098180000
F -3.1871350000 -0.0682450000 1.2651360000
F -3.0810520000 -1.3380190000 -0.4915270000
H 5.3805300000 0.4770330000 0.0286600000
H 4.1902420000 -1.2536050000 -1.1980680000
H 4.1682890000 -1.2683820000 1.2123170000
