18
0 1
C -2.8908120000 0.6626370000 -0.0775570000
C -1.8100230000 1.4918880000 0.2140490000
C -0.5235840000 0.9623950000 0.2963720000
C -2.6796380000 -0.6981710000 -0.2904900000
C -1.3926860000 -1.2247090000 -0.2070750000
C -0.2902480000 -0.4077600000 0.0922810000
H -3.8918110000 1.0749020000 -0.1429520000
H -1.9677770000 2.5531420000 0.3737840000
H 0.3091730000 1.6243960000 0.5057760000
H -3.5161670000 -1.3482870000 -0.5231410000
H -1.2457370000 -2.2862720000 -0.3807560000
B 2.9698820000 0.1025170000 -0.2418180000
O 2.7586030000 1.4416320000 -0.2709770000
H 3.5448160000 1.9561010000 -0.4857260000
Si 1.4375920000 -1.1456190000 0.2366180000
H 4.0711290000 -0.3202850000 -0.4710610000
H 1.6780360000 -1.6112620000 1.6336340000
H 1.4957760000 -2.3671000000 -0.6107800000
