15
0 1
S 1.0327590000 -1.1685190000 -0.1067470000
C 0.2364440000 0.4432410000 0.3622090000
C 1.2378850000 1.5452650000 0.0070470000
H 0.1385110000 -1.9860670000 0.4723630000
H 0.8341620000 2.5211000000 0.2916360000
H 1.4351390000 1.5646420000 -1.0688190000
C -1.1225870000 0.6701730000 -0.3123690000
H 0.1055980000 0.4190980000 1.4476220000
C -2.2267360000 -0.3076330000 0.0940160000
H -1.4405860000 1.6895940000 -0.0574110000
H -0.9850010000 0.6470440000 -1.3986200000
H -2.3618290000 -0.3257020000 1.1804150000
H -2.0068940000 -1.3251580000 -0.2379210000
H -3.1814770000 -0.0186140000 -0.3525630000
H 2.1881940000 1.4040950000 0.5258280000
