12
0 1
O 0.9066850000 -0.5674270000 -0.9346530000
O 2.1517280000 -0.8688660000 -0.3025160000
C 2.8407820000 0.2899420000 -0.0723450000
C -0.0488730000 -0.3438110000 0.0316020000
O -1.1831940000 -0.1895140000 -0.6982730000
O 0.1039550000 -0.2996060000 1.2011320000
O 2.5103130000 1.4008290000 -0.2562100000
F 4.0009190000 -0.1187750000 0.4179360000
C -2.3675360000 0.0952190000 -0.0240230000
F -2.6955530000 -0.8846540000 0.8124140000
F -3.2994200000 0.2061970000 -0.9578870000
F -2.2795160000 1.2359610000 0.6511770000
