18
0 1
F 1.6639720000 -1.3591570000 -0.9387360000
B 1.3087150000 -0.3485240000 -0.1674750000
F 2.2823900000 0.4322260000 0.2807680000
C -0.1973120000 -0.1166070000 0.3026240000
O -1.0154430000 -0.6363800000 -0.7358140000
O -0.4955270000 1.2465670000 0.5748860000
C -2.4182170000 -0.6712760000 -0.4800730000
H -2.8964300000 -0.8547650000 -1.4420680000
H -2.7751700000 0.2791460000 -0.0726830000
H -2.6857310000 -1.4828770000 0.2054760000
C -0.2719220000 2.1434010000 -0.5099540000
H -0.6472910000 3.1149520000 -0.1900000000
H -0.8069470000 1.8236830000 -1.4090610000
H 0.7972370000 2.2378340000 -0.7371120000
C -0.3878190000 -0.8380790000 1.6461460000
H -0.2924700000 -1.9185370000 1.5186460000
H -1.3727890000 -0.6069940000 2.0559380000
H 0.3581380000 -0.4935740000 2.3649200000
