15
0 1
C -1.8729380000 -0.1660750000 0.0050880000
N -2.5355360000 -1.0965370000 -0.1510300000
C -1.0163640000 1.0046450000 0.1899770000
C 0.4190850000 0.7950820000 -0.3355630000
H -0.9974330000 1.2481000000 1.2575760000
H -1.4870790000 1.8510860000 -0.3191440000
C 1.1959550000 -0.2987640000 0.4037060000
H 0.9463620000 1.7505500000 -0.2425350000
H 0.3762020000 0.5628860000 -1.4046870000
C 2.6185520000 -0.4784090000 -0.1325320000
H 0.6516640000 -1.2457770000 0.3250830000
H 1.2343090000 -0.0532730000 1.4719720000
H 2.6097690000 -0.7596340000 -1.1898920000
H 3.1498860000 -1.2615910000 0.4137830000
H 3.1993340000 0.4445390000 -0.0390000000
