15
0 2
Cl 2.2823520000 -0.5261740000 0.0388160000
B 0.6354490000 -0.3158270000 -0.5074420000
C -0.4844600000 0.4787370000 0.2361240000
C -1.9146730000 0.0971440000 -0.1970510000
C -0.2156070000 1.9939410000 0.0253600000
H -0.2723020000 2.2642840000 -1.0329060000
H 0.7669200000 2.2904720000 0.3989660000
H -0.9704760000 2.5792850000 0.5579980000
H -0.3790510000 0.2733220000 1.3132580000
C -2.2783360000 -1.3579520000 0.1088340000
H -2.0245830000 0.2856710000 -1.2709000000
H -2.6235890000 0.7642360000 0.3080570000
H -1.6123000000 -2.0510990000 -0.4154000000
H -3.3015410000 -1.5847920000 -0.2016540000
H -2.2018550000 -1.5685130000 1.1803110000
