15
0 1
O -0.8539790000 0.5713810000 -0.0000270000
C 0.1405510000 -0.3749620000 -0.0000040000
C -0.4491800000 -1.6234250000 0.0000050000
C -1.8490880000 -1.4357110000 -0.0000130000
C -2.0503850000 -0.0778370000 -0.0000340000
B 1.6103710000 0.0928890000 0.0000070000
S 2.8955720000 -1.1933260000 0.0000240000
S 2.0715690000 1.8436350000 -0.0000100000
C -3.2623900000 0.7376220000 -0.0000620000
O -4.3793310000 0.2705450000 0.0000670000
H -3.0769350000 1.8305900000 0.0000540000
H 0.0772900000 -2.5653220000 0.0000220000
H -2.6270540000 -2.1819280000 -0.0000130000
H 0.8221150000 2.3407610000 -0.0000250000
H 3.9679000000 -0.3830250000 0.0000270000
