15
0 1
O -0.5625590000 0.5558450000 0.4636540000
B -1.7357140000 -0.0553630000 0.0083610000
O -1.7954080000 -1.3374280000 -0.4354470000
O -2.8244890000 0.7547430000 0.0485930000
O 0.5174590000 -0.4052990000 0.4228510000
C 1.6892540000 0.1825760000 -0.0223100000
C 1.8147980000 1.4441200000 -0.4188380000
C 2.7698120000 -0.8553820000 0.0415900000
H 3.7130200000 -0.4283180000 -0.2974040000
H 2.5282120000 -1.7147160000 -0.5912650000
H 2.8942610000 -1.2205180000 1.0648080000
H 0.9816660000 2.1292300000 -0.4165780000
H 2.7832600000 1.7992900000 -0.7415120000
H -3.6122720000 0.3050890000 -0.2696710000
H -0.9327820000 -1.7640160000 -0.3900320000
