7
0 1
H 2.0212070000 -0.6273440000 1.0357890000
H 2.0211290000 -0.6273450000 -1.0358150000
B 1.4577660000 -0.4914680000 0.0000080000
C -0.0114870000 0.0386300000 0.0000710000
O -0.1037870000 1.2495620000 -0.0000160000
O -1.0704100000 -0.7858300000 -0.0000310000
H -1.8686640000 -0.2296030000 -0.0000630000
