19
0 1
S -0.2196400000 -0.8029480000 -0.5530720000
B 1.3220200000 -0.0651270000 0.0203610000
S 2.8801410000 -0.9929150000 -0.1814250000
C -1.5697080000 0.4458810000 -0.2274430000
C -1.6902070000 1.4191720000 -1.4003060000
H -0.7546300000 1.9505800000 -1.5806620000
H -2.4676360000 2.1609930000 -1.1889950000
H -1.9637970000 0.8911750000 -2.3175120000
C -2.8803700000 -0.3093260000 0.0409860000
C -2.9119930000 -1.1040950000 1.3481190000
H -3.0946600000 -0.9689650000 -0.8080250000
H -3.6817950000 0.4388640000 0.0524310000
H -2.1470080000 -1.8833310000 1.3624510000
H -3.8840750000 -1.5847880000 1.4838010000
H -2.7399210000 -0.4513250000 2.2092690000
H -1.2809340000 0.9830440000 0.6792280000
S 1.3800560000 1.5805170000 0.8070740000
H 2.7020390000 1.6116300000 1.0504850000
H 2.3670840000 -2.0865050000 -0.7736330000
