12
0 1
C 0.0327970000 0.5847510000 -0.0147130000
C -1.0627950000 -0.4830280000 0.0123850000
P 1.7510470000 -0.1634830000 -0.0909190000
H -0.0647580000 1.2504210000 0.8471440000
H -0.0967610000 1.1932210000 -0.9141810000
N -2.3855400000 0.1473020000 -0.0821610000
H -0.9350680000 -1.1139200000 0.9079680000
H -0.9447780000 -1.1418540000 -0.8537730000
H -2.5849110000 0.6655820000 0.7688410000
H -3.1066920000 -0.5630430000 -0.1621280000
H 1.8701650000 -0.5240870000 1.2783210000
H 2.4758680000 1.0444740000 0.0806800000
