10
0 2
S 1.8244000000 -0.0739490000 -0.0000010000
O 0.2794910000 -0.6630350000 -0.0000030000
C -0.8600860000 0.1465210000 0.0000000000
C -0.8400050000 1.4761570000 -0.0000000000
C -2.0702060000 -0.7342450000 0.0000040000
H -2.9806330000 -0.1351170000 0.0000060000
H -2.0705300000 -1.3815500000 0.8813570000
H -2.0705340000 -1.3815530000 -0.8813470000
H 0.0884010000 2.0302890000 -0.0000040000
H -1.7712540000 2.0247990000 0.0000020000
