15
0 1
C 2.7420530000 -0.1524720000 0.0000120000
C 1.3300320000 0.4380620000 -0.0000060000
H 2.9140960000 -0.7754770000 0.8832540000
H 3.4977020000 0.6369040000 0.0000470000
H 2.9141350000 -0.7754350000 -0.8832520000
C 0.2421130000 -0.6388210000 -0.0000580000
H 1.1929490000 1.0832500000 -0.8727130000
H 1.1929100000 1.0832070000 0.8727260000
C -1.1607460000 -0.1230260000 -0.0001010000
H 0.3341990000 -1.3049740000 0.8694730000
H 0.3342350000 -1.3049260000 -0.8696200000
O -1.4699200000 1.0722190000 0.0001090000
B -2.6306250000 -0.5902980000 0.0000120000
H -3.1942310000 -0.7053970000 1.0403390000
H -3.1942210000 -0.7058740000 -1.0402630000
