20
0 1
Si -2.3986890000 -0.2398130000 -0.4284580000
N -0.8632740000 -1.0103170000 -0.1333030000
C 0.4200480000 -0.4593280000 -0.0711570000
C 0.6504430000 0.9007510000 -0.3355270000
C 1.5226060000 -1.2658450000 0.2575530000
C 2.8033500000 -0.7307270000 0.3204420000
C 3.0237940000 0.6208850000 0.0598910000
C 1.9364890000 1.4271420000 -0.2686680000
H 4.0229200000 1.0364940000 0.1107930000
H 2.0865800000 2.4805080000 -0.4792550000
H -0.1753460000 1.5491460000 -0.6068350000
H 1.3657630000 -2.3202690000 0.4647630000
H 3.6356660000 -1.3774870000 0.5762780000
H -0.8803790000 -2.0075780000 0.0249530000
C -2.9453430000 0.9165970000 0.9414660000
H -3.0540210000 0.3802240000 1.8878380000
H -3.9116870000 1.3659740000 0.6906620000
H -2.2288670000 1.7278120000 1.0946710000
H -3.3403070000 -1.3766260000 -0.5507500000
H -2.3640770000 0.5145560000 -1.7055730000
