13
0 2
O -2.0750900000 0.2676870000 0.6254170000
C -1.0326270000 0.0190060000 -0.0366620000
O -1.0815770000 -1.1205520000 -0.5615420000
C 1.4464150000 0.3132730000 -0.5297380000
C 0.1046650000 0.9841650000 -0.1979400000
H 0.1639750000 1.5838720000 0.7159590000
H -0.1909970000 1.6708120000 -1.0002720000
C 2.0272180000 -0.4965740000 0.6328670000
H 2.1505870000 1.0966760000 -0.8248830000
H 1.3164340000 -0.3312550000 -1.4037860000
H 2.1889530000 0.1337190000 1.5126860000
H 2.9890160000 -0.9359920000 0.3579690000
H 1.3613430000 -1.3141320000 0.9201610000
