12
0 1
F 1.8132770000 0.6688330000 -0.8012200000
B 1.1925720000 -0.1539510000 0.0332590000
F 1.8653110000 -1.2028840000 0.4688740000
C -0.3009000000 0.1447810000 0.4710610000
O -1.0768230000 -0.4886630000 -0.5277070000
O -0.5715660000 1.5295210000 0.5905820000
C -2.4670310000 -0.5788280000 -0.2165820000
H -2.6267190000 -1.2038580000 0.6713930000
H -2.9519690000 -1.0421700000 -1.0749200000
H -2.8942640000 0.4124660000 -0.0427660000
H -0.2637600000 1.9580980000 -0.2172950000
H -0.5387560000 -0.2709070000 1.4585350000
