13
0 2
C -0.0000090000 0.0000160000 -0.1498450000
C 0.5049780000 -1.3977650000 0.0148560000
H 1.4945990000 -1.5275400000 -0.4348880000
H -0.1733320000 -2.1301090000 -0.4346100000
H 0.6059790000 -1.6767650000 1.0793950000
C 0.9580210000 1.1362030000 0.0150020000
H 1.9314160000 0.9149480000 -0.4344460000
H 1.1491150000 1.3630440000 1.0795720000
H 0.5756470000 2.0581750000 -0.4346810000
C -1.4630010000 0.2615580000 0.0149110000
H -2.0702080000 -0.5305570000 -0.4348800000
H -1.7580760000 1.2152030000 -0.4344710000
H -1.7550730000 0.3135330000 1.0794650000
