10
0 1
O 2.0593740000 -0.5186890000 -0.0157720000
C 1.6644770000 0.8506280000 -0.1914920000
C 0.7764270000 -0.1097590000 0.4688000000
H 1.4600260000 1.1485430000 -1.2170350000
H 2.2116790000 1.5720720000 0.4089520000
C -0.3849250000 -0.7241660000 -0.2625170000
H 0.6841260000 -0.0782180000 1.5522970000
Cl -1.9042350000 0.2280030000 0.0320680000
H -0.2095620000 -0.7324190000 -1.3365190000
H -0.5851400000 -1.7367270000 0.0845730000
