10
0 2
Si -1.5075510000 -0.1242510000 -0.0593980000
B 0.4815800000 0.1081150000 0.0018320000
H -2.4105790000 0.9713530000 0.3633720000
H -2.0842550000 -1.4471580000 0.2810120000
O 0.9123510000 1.4018250000 0.0072280000
C 1.4748960000 -1.1175130000 0.0063280000
H 1.5477720000 -1.5265070000 1.0224760000
H 2.4917100000 -0.8508590000 -0.3088920000
H 1.1315930000 -1.9410550000 -0.6264650000
H 1.8733850000 1.4836490000 -0.0048840000
