14
0 1
F 2.6128040000 0.1080700000 0.8180280000
O 2.0807620000 0.1270740000 -0.5509110000
O 0.8169560000 0.6242570000 -0.4510550000
C -0.1298630000 -0.4349000000 -0.1731890000
O 0.1830930000 -1.5874780000 -0.1841380000
N -1.3378670000 0.1212980000 0.0597560000
C -1.6202230000 1.5552030000 0.0605510000
H -0.7011030000 2.1275430000 0.1321910000
H -2.2503910000 1.7909650000 0.9221800000
H -2.1529340000 1.8474990000 -0.8508930000
C -2.4804560000 -0.7715070000 0.2276340000
H -2.9704280000 -0.5735650000 1.1854170000
H -2.1324060000 -1.8007290000 0.2069920000
H -3.2061350000 -0.6170350000 -0.5775750000
