13
0 1
C -1.6602410000 1.1602820000 0.0038990000
C -2.2795000000 -0.0857110000 0.0048310000
C -1.4719560000 -1.2206920000 0.0008500000
N -0.1380550000 -1.1766800000 -0.0096440000
C 0.4556940000 0.0255780000 0.0045820000
C -0.2705110000 1.2218370000 0.0070260000
H -3.3586500000 -0.1802420000 0.0060100000
H -1.9143450000 -2.2130980000 -0.0002440000
H 0.2405220000 2.1768690000 0.0202950000
H -2.2489820000 2.0710140000 0.0074140000
P 2.3014380000 -0.0527670000 -0.1083210000
H 2.5138430000 -0.6828530000 1.1428560000
H 2.5715130000 1.2488020000 0.3888490000
