7
0 2
C -0.4129390000 -0.0115760000 -0.0000020000
C -0.9768430000 1.3381320000 -0.0000150000
F -0.7664530000 -0.7215550000 1.0912260000
Cl 1.4295410000 0.0774540000 0.0000050000
F -0.7664440000 -0.7215740000 -1.0912200000
H -1.0837190000 1.8560650000 0.9415680000
H -1.0837080000 1.8560500000 -0.9416070000
