27
0 2
N 0.0000010000 -0.0000040000 -0.5356940000
Si -1.6568030000 0.0067390000 -0.0500260000
Si 1.6568040000 -0.0067380000 -0.0500210000
C 1.9521090000 0.4647580000 1.7517300000
H 1.5881160000 1.4749060000 1.9641640000
H 3.0207570000 0.4448110000 1.9910510000
H 1.4447190000 -0.2232740000 2.4342030000
C 2.5992380000 1.1887630000 -1.1562500000
H 2.2315490000 2.2120690000 -1.0363440000
H 2.4875160000 0.9138350000 -2.2081480000
H 3.6662740000 1.1879750000 -0.9107380000
C 2.2509600000 -1.7755860000 -0.3401330000
H 3.3164170000 -1.8495240000 -0.0980050000
H 1.7132630000 -2.4885510000 0.2903920000
H 2.1145940000 -2.0698520000 -1.3832840000
C -2.5992210000 -1.1888250000 -1.1562020000
H -2.4874980000 -0.9139450000 -2.2081130000
H -3.6662580000 -1.1880360000 -0.9106940000
H -2.2315220000 -2.2121210000 -1.0362470000
C -1.9521110000 -0.4646760000 1.7517470000
H -1.5881100000 -1.4748100000 1.9642290000
H -3.0207600000 -0.4447270000 1.9910630000
H -1.4447300000 0.2233940000 2.4341890000
C -2.2509760000 1.7755670000 -0.3402230000
H -3.3164340000 1.8495070000 -0.0980990000
H -1.7132860000 2.4885680000 0.2902670000
H -2.1146130000 2.0697840000 -1.3833890000
