11
0 1
Si 2.4657840000 0.1128220000 -0.5291550000
Si 0.6263510000 -0.6192380000 0.7518310000
C -0.9154480000 0.4406900000 0.2588750000
H 0.8416590000 -0.3737910000 2.1957540000
H 0.3282460000 -2.0529030000 0.5248820000
O -0.9368440000 1.6327280000 0.4199760000
H 3.6563590000 -0.6980570000 -0.1799940000
H 2.7407630000 1.5386250000 -0.2444090000
S -2.3106800000 -0.4745950000 -0.4796660000
H 2.1691620000 -0.0574650000 -1.9702920000
H -3.0677630000 0.6209650000 -0.6817910000
