12
0 1
B -0.6319560000 0.0271850000 0.0000650000
C 0.7279800000 -0.7962670000 0.0000220000
C 2.0231110000 0.0310390000 -0.0000050000
H 2.0889330000 0.6735450000 0.8845860000
H 2.0888930000 0.6735530000 -0.8845940000
H 2.9137160000 -0.6024680000 -0.0000280000
O -0.6840720000 1.3917770000 -0.0000170000
H 0.1847000000 1.7998040000 -0.0000380000
O -1.8520350000 -0.5923290000 -0.0000260000
H -1.7834270000 -1.5495370000 -0.0000500000
H 0.7246180000 -1.4675180000 -0.8698380000
H 0.7246560000 -1.4675210000 0.8698770000
