13
0 1
C 1.2100970000 0.2753590000 -0.0000000000
C 1.1869910000 -1.1118000000 -0.0000000000
C -0.0541490000 -1.7503740000 -0.0000000000
N -1.2268970000 -1.1063310000 0.0000000000
C -1.1819270000 0.2259480000 0.0000000000
C -0.0000000000 0.9964640000 0.0000000000
H 2.0999900000 -1.6955380000 -0.0000000000
H -0.1097800000 -2.8359690000 -0.0000000000
H 2.1537450000 0.8110690000 -0.0000000000
B -0.0485390000 2.5313920000 0.0000000000
H -2.1448800000 0.7305440000 0.0000000000
H -1.0967680000 3.0993750000 0.0000000000
H 0.9625910000 3.1643020000 -0.0000000000
