11
0 1
N 0.3530150000 0.0255840000 -0.2754420000
N 0.8946320000 1.3034940000 0.0419740000
P -1.3367320000 -0.1741630000 -0.0110460000
C 1.2175790000 -1.1061200000 0.0526480000
H 2.1583360000 -1.0197020000 -0.5010200000
H 0.7345340000 -2.0400810000 -0.2409200000
H 1.4587360000 -1.1607180000 1.1276580000
H 1.6870590000 1.4718680000 -0.5735200000
H 1.2449600000 1.3047770000 1.0035020000
H -1.7575750000 1.0220410000 -0.6376100000
H -1.5140640000 0.3674300000 1.3059860000
