19
0 1
C 1.0037930000 0.0000010000 -0.0132500000
P -0.8192150000 -0.0000000000 -0.1103270000
O -1.4500030000 0.0000200000 -1.4424650000
O -1.2309460000 1.2773950000 0.7883270000
C 1.5091490000 -1.2642580000 -0.7381090000
H 1.1648310000 -1.2915460000 -1.7742680000
H 1.1661900000 -2.1719460000 -0.2373260000
C 1.4640510000 -0.0000200000 1.4580270000
H 2.5582060000 -0.0000170000 1.4925270000
H 1.1061820000 -0.8848880000 1.9875240000
H 1.1061760000 0.8848300000 1.9875510000
C 1.5091430000 1.2642850000 -0.7380710000
H 1.1648260000 1.2916030000 -1.7742290000
H 2.6032820000 1.2684580000 -0.7399110000
H 1.1661810000 2.1719560000 -0.2372590000
H 2.6032870000 -1.2684270000 -0.7399500000
H -1.9863350000 1.7371960000 0.4027340000
O -1.2309340000 -1.2774240000 0.7882900000
H -1.9863530000 -1.7371910000 0.4027150000
