14
0 2
Si 1.6337970000 -1.1542490000 -0.0698550000
B -0.1026320000 -0.1328880000 0.0124990000
H 2.8647020000 -0.5202780000 0.4655030000
H 1.5846010000 -2.5824770000 0.3185460000
O -1.2211100000 -0.9059670000 0.0075840000
O -0.2378530000 1.2241700000 0.0066190000
C -2.5282910000 -0.3216340000 0.0051190000
H -3.2449010000 -1.1383640000 -0.0767220000
H -2.6497860000 0.3619180000 -0.8387630000
H -2.7080240000 0.2309260000 0.9309500000
C 0.8664670000 2.1236650000 -0.0019100000
H 0.4716830000 3.1248290000 -0.1763170000
H 1.5751180000 1.8793390000 -0.7992500000
H 1.3892520000 2.1102190000 0.9586400000
