20
0 1
Si -0.6952600000 1.6315800000 0.0059110000
C 1.1153360000 1.4489430000 -0.4970180000
C -1.5133710000 -0.0931530000 -0.2200500000
O -0.9819720000 -1.0201040000 -0.7860600000
H -1.3688430000 2.5739270000 -0.9180580000
H -0.8581000000 2.1073270000 1.3922420000
O -2.7577980000 -0.1515050000 0.3000610000
C -3.4522320000 -1.4104470000 0.1558470000
H -4.4201560000 -1.2637280000 0.6287110000
H -2.8968810000 -2.2075540000 0.6517430000
H -3.5710360000 -1.6602400000 -0.8993920000
C 1.7612200000 0.2882180000 0.2184400000
O 1.5696680000 0.0123740000 1.3799150000
O 2.5830140000 -0.4067840000 -0.5866050000
C 3.1954980000 -1.5687290000 0.0046180000
H 2.4284990000 -2.2761220000 0.3222150000
H 3.8028380000 -1.2860330000 0.8655330000
H 3.8146070000 -1.9996730000 -0.7788310000
H 1.6382140000 2.3650730000 -0.1992060000
H 1.2224950000 1.3440540000 -1.5772220000
