12
0 1
Si -0.9711720000 -0.6701340000 0.9136990000
Si 0.9711720000 0.6701340000 0.9136990000
P 0.9711720000 2.0798210000 -0.8878260000
H 2.1762520000 -0.1948610000 0.9658320000
H 0.9631860000 1.5287030000 2.1247730000
H 1.2632310000 1.0576590000 -1.8292550000
H 2.3328860000 2.4523820000 -0.7357480000
P -0.9711720000 -2.0798210000 -0.8878260000
H -2.1762520000 0.1948610000 0.9658320000
H -0.9631860000 -1.5287030000 2.1247730000
H -1.2632310000 -1.0576590000 -1.8292550000
H -2.3328860000 -2.4523820000 -0.7357480000
