19
0 1
C -2.7495380000 0.3991080000 -0.4290640000
S -1.7502160000 -1.1541780000 -0.2270380000
Si 0.2266090000 -0.3881660000 -0.0909660000
C 0.7300280000 1.2841990000 -0.3569870000
C 2.1013660000 1.5402180000 -0.2347550000
C 1.6234150000 -1.3995310000 0.2910160000
C 2.8632640000 -0.7561680000 0.3140940000
C 3.0942000000 0.6047670000 0.0726460000
H 4.1172540000 0.9586300000 0.1306870000
H 2.4318150000 2.5651030000 -0.3941090000
H 0.0713090000 2.1095840000 -0.5997980000
H 1.5815530000 -2.4619390000 0.5006920000
H 3.7368400000 -1.3634660000 0.5441490000
C -2.9920110000 1.1559000000 0.8709980000
H -3.6875450000 0.0395710000 -0.8559260000
H -2.2687490000 1.0232580000 -1.1828030000
H -3.4790170000 0.5184510000 1.6115670000
H -3.6393150000 2.0188010000 0.6829860000
H -2.0575590000 1.5222140000 1.3010040000
