9
0 2
Si -0.6210010000 -0.5883780000 0.0531330000
Si 1.5824900000 0.2188290000 -0.1099200000
N -1.7052450000 0.7493980000 -0.0775880000
H -1.6305050000 1.5366660000 0.5500620000
H -2.6650240000 0.5952200000 -0.3517800000
H -0.7547020000 -1.4105240000 1.2931670000
H -0.9116460000 -1.4919460000 -1.0853970000
H 2.6194010000 -0.7753090000 0.2772020000
H 1.8183410000 1.4737930000 0.6548850000
