13
0 1
Si 2.1874600000 0.2853280000 0.0000160000
Si 0.1949660000 -0.9667440000 -0.0000220000
C -1.2836320000 0.3037010000 -0.0000330000
H 0.0725740000 -1.8435010000 1.1945390000
H 0.0726020000 -1.8434670000 -1.1946110000
O -1.0211040000 1.4898920000 -0.0000020000
H 2.2522740000 1.1350540000 -1.2105510000
H 2.2522310000 1.1350460000 1.2105890000
C -2.7156640000 -0.1933780000 0.0000290000
H -2.8928530000 -0.8217000000 -0.8793320000
H -3.4066130000 0.6514060000 0.0000500000
H -2.8927850000 -0.8216880000 0.8794120000
H 3.3532090000 -0.6324040000 0.0000340000
