11
0 2
Cl -2.3165560000 -0.0840750000 0.0920490000
B -0.7309210000 -0.8007870000 0.0244730000
P 0.8809540000 -0.0526480000 -0.5159990000
C 2.1989200000 -1.0147180000 0.3659740000
C 1.0150120000 1.6562410000 0.2098950000
H 2.0785380000 -2.0720540000 0.1258170000
H 2.1561420000 -0.8891790000 1.4493260000
H 3.1776760000 -0.6899940000 0.0066620000
H 0.1726920000 2.2545370000 -0.1410990000
H 1.9365850000 2.1234690000 -0.1445460000
H 1.0165180000 1.6470160000 1.3014160000
