20
0 1
C -2.1969280000 -1.3704820000 0.0000050000
C -0.8170960000 -1.1830060000 -0.0000320000
C -3.0506130000 -0.2697110000 0.0000380000
C -2.5217330000 1.0216690000 0.0000330000
C -1.1457160000 1.2086730000 -0.0000050000
C -0.2768800000 0.1092260000 -0.0000400000
H -0.1675020000 -2.0495370000 -0.0000570000
H -2.6051420000 -2.3747530000 0.0000100000
C 2.1652300000 -0.8026570000 -0.0000180000
C 3.6325110000 -0.3823560000 0.0000540000
H 3.8664430000 0.2214650000 0.8785860000
H 3.8665330000 0.2214460000 -0.8784680000
H 4.2823750000 -1.2607790000 0.0000960000
H -4.1248890000 -0.4169480000 0.0000680000
C 1.2023010000 0.3794540000 -0.0000840000
H -0.7124050000 2.2011490000 -0.0000110000
H -3.1846080000 1.8795510000 0.0000580000
H 1.9402700000 -1.4276550000 0.8727150000
H 1.9403590000 -1.4276710000 -0.8727610000
O 1.6190140000 1.5211070000 0.0000080000
