9
0 1
S -0.1445870000 -1.0173120000 -0.0234640000
N 1.1903450000 0.2628160000 -0.0059920000
O 0.8974210000 1.3996680000 -0.2878000000
O 2.2694590000 -0.1893760000 0.3101270000
O -1.4226120000 -0.1580220000 -0.5503290000
C -2.1563830000 0.6061220000 0.4424290000
H -3.0339890000 0.9811580000 -0.0817470000
H -1.5455060000 1.4368210000 0.7950490000
H -2.4553690000 -0.0355850000 1.2735100000
