14
0 1
S 0.4022180000 -0.1911200000 0.0000000000
C -1.0461020000 0.8989730000 -0.0000000000
C 1.7902590000 0.9524010000 -0.0000010000
O 0.4222730000 -0.9112410000 -1.2595990000
O 0.4222740000 -0.9112400000 1.2596000000
H 1.7575060000 1.5626810000 -0.9018920000
H 2.6853170000 0.3294460000 -0.0000010000
H 1.7575060000 1.5626820000 0.9018910000
C -2.3294070000 0.0701650000 0.0000000000
H -0.9635710000 1.5246130000 -0.8915820000
H -0.9635710000 1.5246130000 0.8915810000
H -2.3784960000 -0.5648350000 -0.8857020000
H -3.1965540000 0.7341540000 0.0000000000
H -2.3784960000 -0.5648340000 0.8857030000
