11
0 1
P 0.4694910000 -0.6258930000 -0.1018500000
C 1.8906330000 0.5469060000 -0.0473390000
H 1.7888900000 1.2430580000 0.7870370000
H 1.9417320000 1.1078270000 -0.9821600000
H 2.8162200000 -0.0245890000 0.0669910000
O -0.7305730000 0.4896060000 0.2223850000
C -2.0765650000 0.1377680000 -0.0908300000
H -2.6535400000 1.0635070000 -0.1064400000
H -2.5015540000 -0.5290170000 0.6687760000
H -2.1511520000 -0.3496540000 -1.0699470000
H 0.6772140000 -1.1476310000 1.2134340000
