17
0 1
B 2.0013900000 -0.1315840000 0.5550700000
C 0.9066230000 -0.2049540000 -0.5342000000
C 0.2344610000 1.1926510000 -0.1667110000
C -0.2222480000 -1.2566280000 -0.3795010000
C -1.2962440000 -0.5786600000 0.4867770000
H 0.1354940000 -2.1921480000 0.0585140000
H -0.6430840000 -1.5021730000 -1.3605410000
C -1.2640030000 0.8817140000 0.0171220000
H -1.0164490000 -0.6333020000 1.5445220000
H -2.2819230000 -1.0400840000 0.3864120000
H -1.7713980000 0.9681180000 -0.9498380000
H -1.7545920000 1.5709980000 0.7088580000
H 0.4409860000 1.9421750000 -0.9311700000
H 0.6342260000 1.6065320000 0.7748840000
H 1.2866250000 -0.1611040000 -1.5559890000
H 1.7959310000 -0.5746410000 1.6470090000
H 3.0157060000 0.4688080000 0.3610550000
