15
0 1
C 0.4801850000 -0.0000390000 0.8904860000
C -0.7861530000 0.0000020000 0.0196400000
C -0.8967620000 1.2677440000 -0.8323340000
H -0.8656440000 2.1543680000 -0.1948580000
H -1.8470010000 1.2705880000 -1.3758390000
H -0.0897830000 1.3323950000 -1.5647290000
C -0.8967770000 -1.2676770000 -0.8324250000
H -0.8656740000 -2.1543490000 -0.1950150000
H -0.0897940000 -1.3322860000 -1.5648200000
H -1.8470120000 -1.2704680000 -1.3759390000
O -1.8110390000 -0.0000260000 1.0309290000
H -2.6638490000 -0.0000800000 0.5839180000
Cl 2.0208570000 -0.0000000000 -0.0627610000
H 0.4997680000 -0.8891320000 1.5172580000
H 0.4997710000 0.8889990000 1.5173360000
