10
0 1
F -2.3057870000 0.6144580000 0.8601560000
S -1.8350430000 -0.3108170000 -0.4284520000
O -0.3387010000 -0.8119340000 0.0727330000
C 0.7420990000 0.0480770000 -0.1272060000
O 0.6868190000 1.1530800000 -0.5686520000
O 1.8086100000 -0.6223230000 0.2812440000
C 3.0546960000 0.1019560000 0.1831660000
H 3.0122840000 1.0067150000 0.7899840000
H 3.2555310000 0.3669990000 -0.8551710000
H 3.8103670000 -0.5815470000 0.5606600000
