17
0 1
C 3.3017260000 -1.0220590000 -0.0000000000
C 2.0925250000 -1.7133500000 0.0000010000
C 0.8900160000 -1.0117560000 0.0000000000
C 3.3141280000 0.3756710000 -0.0000020000
C 2.1189890000 1.0782990000 -0.0000030000
C 0.8955280000 0.3885480000 -0.0000020000
H 4.2372930000 -1.5701420000 0.0000010000
H 2.0854000000 -2.7969980000 0.0000030000
H -0.0483390000 -1.5512030000 0.0000010000
H 4.2576490000 0.9092460000 -0.0000030000
H 2.1012780000 2.1613690000 -0.0000050000
C -0.3602730000 1.1738350000 -0.0000030000
Si -2.2132990000 0.6489920000 0.0000000000
Cl -2.7433380000 -1.3826670000 0.0000040000
O -0.3677440000 2.3981240000 -0.0000020000
H -2.7921180000 1.2335250000 -1.2202520000
H -2.7921150000 1.2335290000 1.2202530000
