10
0 2
S -0.1696790000 -1.6465010000 0.0000000000
P 0.4304110000 0.2428080000 -0.0000000000
C -0.1696790000 1.1986650000 1.4560340000
C -0.1696790000 1.1986650000 -1.4560340000
H 0.1410820000 0.6838640000 2.3651570000
H -1.2599070000 1.2744500000 1.4424530000
H 0.2662510000 2.2006440000 1.4418830000
H 0.1410820000 0.6838640000 -2.3651570000
H 0.2662510000 2.2006440000 -1.4418830000
H -1.2599070000 1.2744500000 -1.4424530000
