10
0 1
Si -1.9228650000 -0.3872000000 -0.0052060000
Si 0.0704010000 0.8723840000 0.0141730000
H -1.9971690000 -1.2145330000 -1.2330570000
H -3.0985280000 0.5159150000 0.0354730000
H -1.9736610000 -1.2840890000 1.1750080000
P 1.8824610000 -0.5182070000 -0.1076290000
H 0.0997330000 1.7470730000 1.2136580000
H 0.1158390000 1.7413360000 -1.1883880000
H 1.7334830000 -1.0068000000 1.2172390000
H 2.8178780000 0.4816270000 0.2689630000
