18
0 1
Si 1.1908300000 1.7666350000 -0.0046720000
Si -1.1907720000 1.7666460000 0.0046820000
P -1.8082390000 -0.4203930000 -0.0922470000
H -1.7127530000 2.4430120000 -1.2030070000
H -1.7236100000 2.4050630000 1.2280510000
O -1.5178530000 -1.1070170000 1.3124460000
O -3.4075670000 -0.4070490000 -0.1253550000
H -0.5396220000 -1.2526550000 1.4340790000
H -3.8078920000 -1.2487830000 0.1336560000
O -1.1436290000 -1.0826010000 -1.2497940000
P 1.8082340000 -0.4204130000 0.0922430000
H 1.7128270000 2.4429760000 1.2030240000
H 1.7236810000 2.4050470000 -1.2280380000
O 1.5177980000 -1.1069980000 -1.3124570000
H 0.5395580000 -1.2525600000 -1.4340530000
O 3.4075620000 -0.4071190000 0.1253520000
H 3.8078570000 -1.2488890000 -0.1335840000
O 1.1435900000 -1.0825980000 1.2497840000
