22
0 1
C -0.4500780000 -1.6664310000 0.0001850000
C 0.9457510000 -1.6107400000 0.0001940000
C 1.6057390000 -0.3857070000 -0.0000210000
C -1.2105980000 -0.5001870000 -0.0000060000
C -0.5521550000 0.7532560000 -0.0002220000
C 0.8383100000 0.7929180000 -0.0002580000
H 1.5080140000 -2.5370220000 0.0003750000
P 3.4420510000 -0.1964640000 -0.0001160000
H -0.9391830000 -2.6313540000 0.0003640000
O -2.5677590000 -0.4518190000 -0.0000110000
C -3.2846400000 -1.6773200000 0.0000030000
H -3.0654360000 -2.2720770000 -0.8939920000
H -4.3380190000 -1.4025540000 -0.0001170000
H -3.0656160000 -2.2719550000 0.8941240000
H 1.3472060000 1.7477990000 -0.0005000000
O -1.3650030000 1.8434480000 -0.0005080000
C -0.7637230000 3.1295930000 0.0004790000
H -1.5884400000 3.8402680000 0.0009650000
H -0.1494640000 3.2881050000 -0.8931770000
H -0.1495330000 3.2867410000 0.8944170000
H 3.7501030000 -1.1240080000 -1.0302250000
H 3.7500610000 -1.1223050000 1.0315410000
