20
0 1
C -1.0311950000 -0.0000000000 0.3174390000
C -0.3116450000 -1.2605750000 -0.1804190000
C 1.1723620000 -1.2680520000 0.2123640000
C 1.8880910000 0.0000000000 -0.2750660000
C 1.1723620000 1.2680520000 0.2123640000
C -0.3116460000 1.2605750000 -0.1804180000
N -2.4151630000 -0.0000000000 -0.1744400000
H -2.9099850000 -0.8138930000 0.1803750000
H -2.9099840000 0.8138930000 0.1803740000
H -0.4146690000 -1.2999730000 -1.2713760000
H -0.8127340000 -2.1521280000 0.2157070000
H 1.6614870000 -2.1595470000 -0.1928570000
H 1.2610020000 -1.3351300000 1.3044710000
H 1.9126320000 0.0000000000 -1.3723000000
H 2.9300850000 0.0000000000 0.0611920000
H 1.6614860000 2.1595470000 -0.1928570000
H 1.2610020000 1.3351300000 1.3044710000
H -0.8127340000 2.1521280000 0.2157070000
H -0.4146690000 1.2999730000 -1.2713760000
H -0.9767520000 -0.0000000000 1.4219660000
