16
0 1
P -0.4492510000 -0.0015730000 -0.5859970000
C -1.8121090000 -0.9626390000 0.2325800000
H -1.7692370000 -0.9073470000 1.3250750000
H -1.7513830000 -2.0108500000 -0.0703900000
H -2.7786690000 -0.5774220000 -0.1013710000
C 1.0079290000 -0.6906990000 0.3570000000
C -0.6664720000 1.6268390000 0.2830960000
H -1.6008860000 2.0877470000 -0.0468570000
H 0.1459140000 2.3044160000 0.0111470000
H -0.6908380000 1.5207550000 1.3726390000
C 2.3440000000 -0.0414130000 -0.0233030000
H 1.0417030000 -1.7617170000 0.1294130000
H 0.8284580000 -0.6001010000 1.4351580000
H 2.5367980000 -0.1322280000 -1.0956850000
H 3.1748780000 -0.5150180000 0.5073250000
H 2.3619360000 1.0228290000 0.2272600000
