16
0 1
C 2.3049460000 -0.9345010000 -0.0000060000
C 1.8551940000 0.3852860000 -0.0000050000
C 0.4954560000 0.6581060000 -0.0000020000
C 1.3800330000 -1.9711890000 -0.0000050000
C 0.0119970000 -1.7010650000 -0.0000020000
C -0.4519390000 -0.3819530000 -0.0000000000
H 3.3681130000 -1.1411540000 -0.0000080000
H 2.5548460000 1.2114370000 -0.0000060000
Cl -0.0544870000 2.3194230000 0.0000000000
H 1.7149690000 -3.0019480000 -0.0000060000
H -0.6926110000 -2.5215430000 -0.0000010000
O -1.7579200000 -0.0222580000 0.0000020000
C -2.7464040000 -1.0433230000 0.0000120000
H -3.7031040000 -0.5244200000 0.0000180000
H -2.6741270000 -1.6713380000 0.8947040000
H -2.6741410000 -1.6713410000 -0.8946790000
