13
0 1
Si -2.5820390000 -0.7890860000 -0.0812630000
Si -1.0349610000 0.8469770000 0.6185410000
S 0.6615800000 1.0479700000 -0.7360110000
H -0.5366560000 0.5703730000 1.9878740000
H -1.6695450000 2.1899230000 0.6064170000
S 1.5932550000 -0.8163810000 -0.4265700000
H -3.6866560000 -0.8667620000 0.9074600000
H -1.9413980000 -2.1188760000 -0.1900780000
C 2.7579960000 -0.4469040000 0.9309530000
H 3.3088830000 -1.3750730000 1.1031290000
H 2.2277390000 -0.1673460000 1.8405460000
H 3.4532990000 0.3377330000 0.6360940000
H -3.1430180000 -0.4044430000 -1.3977520000
