11
0 1
Si 0.0000000000 0.5473110000 -0.0000010000
C -1.5557940000 -0.5105520000 0.0000010000
H -2.4544280000 0.1124420000 -0.0000010000
H -1.5940880000 -1.1533660000 0.8843450000
H -1.5940880000 -1.1533680000 -0.8843410000
C 1.5557940000 -0.5105520000 0.0000000000
H 0.0000000000 1.4264240000 1.1980300000
H -0.0000000000 1.4264210000 -1.1980340000
H 1.5940890000 -1.1533650000 0.8843450000
H 2.4544280000 0.1124420000 -0.0000020000
H 1.5940870000 -1.1533690000 -0.8843410000
