23
0 1
C -2.4866100000 1.5315540000 0.2225050000
C -1.3923770000 2.3581380000 -0.0197150000
C -0.1675400000 1.8121700000 -0.3928040000
C -2.3331210000 0.1570910000 0.0844560000
C -1.1266910000 -0.4233360000 -0.2849070000
C -0.0504520000 0.4262970000 -0.5135220000
H -1.4965910000 3.4315550000 0.0772520000
H 0.6887970000 2.4427220000 -0.5925020000
H -1.0450130000 -1.4943140000 -0.4032860000
S 1.5169510000 -0.2760420000 -1.0064470000
O 1.3002940000 -1.6379230000 -1.4130900000
O 2.2048610000 0.6903880000 -1.8091520000
N 2.3809880000 -0.4011760000 0.4793280000
N 2.8080390000 0.7924830000 0.9885080000
O 3.3493560000 0.6957330000 2.0629870000
C 2.5127530000 -1.6489560000 1.2379950000
H 2.1476310000 -2.4622580000 0.6186380000
H 1.9460360000 -1.5821350000 2.1693610000
H 3.5653210000 -1.8018240000 1.4782200000
N -3.4992090000 -0.7265880000 0.3349070000
O -4.5534780000 -0.1899800000 0.6397330000
O -3.3250010000 -1.9303280000 0.2223640000
H -3.4501560000 1.9290160000 0.5094820000
