21
0 2
C 1.8632910000 -0.1328950000 -0.0189380000
N 2.8884730000 -0.6605640000 -0.0460160000
C -0.5746310000 -0.5844720000 -0.0669120000
C -1.8820090000 0.0904470000 -0.0281000000
N -2.9091200000 0.6127050000 0.0120450000
C 0.5607050000 0.5490720000 0.0207670000
C -0.4541520000 -1.3674750000 -1.3460990000
H 0.4429440000 -1.9494430000 -1.5142600000
H -1.2565860000 -1.3970270000 -2.0686690000
C -0.4949850000 -1.5635100000 1.1408750000
H -0.6662970000 -1.0495580000 2.0873510000
H 0.4873590000 -2.0383450000 1.1630080000
H -1.2534360000 -2.3392970000 1.0318020000
C 0.4690490000 1.3635890000 1.3308870000
H 0.6381450000 0.7464730000 2.2130240000
H -0.5142820000 1.8319560000 1.4081740000
H 1.2247570000 2.1512050000 1.3246340000
C 0.4656940000 1.5034010000 -1.1913600000
H 0.5467130000 0.9585380000 -2.1328360000
H 1.2681620000 2.2417630000 -1.1493790000
H -0.4907190000 2.0298010000 -1.1717700000
