8
0 1
B 3.0724480000 -0.6222460000 -0.0000160000
B 1.9449870000 0.6013780000 -0.0000140000
N 0.5515830000 0.3709300000 -0.0000220000
C -0.6160610000 0.1300370000 0.0000570000
S -2.1620520000 -0.1803420000 -0.0000190000
H 2.3050700000 1.7464190000 0.0002930000
H 3.5182370000 -1.0663840000 -1.0157100000
H 3.5176340000 -1.0669540000 1.0156930000
