19
0 1
C -0.7791950000 -0.2378520000 -0.2962880000
C -1.7516870000 0.3155510000 -1.1369600000
H -1.4679450000 0.6996750000 -2.1102480000
C -3.0820750000 0.3754450000 -0.7266850000
H -3.8293970000 0.8047300000 -1.3841270000
C -3.4497510000 -0.1255120000 0.5191350000
H -4.4859040000 -0.0856300000 0.8355790000
C -2.4855760000 -0.6848200000 1.3587540000
H -2.7712330000 -1.0786060000 2.3276080000
C -1.1552280000 -0.7388440000 0.9571990000
H -0.4110570000 -1.1818800000 1.6091040000
P 0.9555440000 -0.2484760000 -0.9199420000
Cl 1.6210230000 -2.1528000000 -0.3557220000
C 1.7194390000 0.7177640000 0.5484940000
O 2.4372400000 0.2427290000 1.3850240000
C 1.3926020000 2.2074650000 0.5561500000
F 0.6671780000 2.5587760000 -0.5785980000
H 2.3239250000 2.7791780000 0.5742470000
H 0.7973630000 2.4412750000 1.4426170000
