17
0 1
C -0.2225020000 1.2454690000 -0.2166090000
C -1.0401230000 -0.0000050000 0.1611710000
C -0.2224990000 -1.2455030000 -0.2165220000
P 1.6567140000 -1.1298770000 0.1041450000
P 1.6566970000 1.1298890000 0.1041430000
C -1.1856700000 0.0000450000 1.7092350000
H -0.2220970000 0.0000650000 2.2257990000
H -1.7380370000 -0.8883640000 2.0229420000
H -1.7380420000 0.8884730000 2.0228830000
C -2.4072350000 -0.0000290000 -0.5226980000
H -2.3021110000 -0.0000650000 -1.6089290000
H -2.9674810000 0.8912150000 -0.2371790000
H -2.9674780000 -0.8912570000 -0.2371190000
O -0.7023090000 -2.2611510000 -0.6429660000
O -0.7023290000 2.2611360000 -0.6429870000
H 1.9696980000 1.3610560000 -1.2562740000
H 1.9696680000 -1.3610410000 -1.2562830000
