23
0 1
P 1.9563530000 -0.3615410000 -0.4959610000
C 3.5436260000 -0.3734030000 0.4706720000
C -0.6903240000 -0.2102670000 0.5089670000
C 1.8907310000 1.4338390000 -0.9603990000
H 2.6485320000 1.6333600000 -1.7221050000
H 2.0649850000 2.0965750000 -0.1066050000
H 0.9142900000 1.6616670000 -1.3926570000
H 3.5769590000 0.4055470000 1.2390550000
H 4.3823970000 -0.2266880000 -0.2143510000
H 3.6736430000 -1.3476380000 0.9484980000
C -1.3767680000 0.9900240000 0.7230430000
C -1.3665230000 -1.2537530000 -0.1368130000
C -2.6868050000 -1.1027460000 -0.5499220000
C -3.3591390000 0.0983770000 -0.3288310000
C -2.6987110000 1.1448130000 0.3093720000
H -3.2124680000 2.0827130000 0.4899870000
H -0.8729870000 1.8091950000 1.2261740000
H -3.1925260000 -1.9247670000 -1.0445650000
H -4.3881830000 0.2156000000 -0.6492200000
H -0.8503730000 -2.1910450000 -0.3167320000
C 0.7451970000 -0.3713570000 0.9436100000
H 0.8826340000 -1.3351080000 1.4446690000
H 1.0201040000 0.4105360000 1.6590770000
