16
0 1
F 4.1278520000 -0.2407870000 0.0764150000
F 0.1624480000 2.1561330000 -0.5415930000
S -2.6806120000 1.2270670000 0.4738080000
C -0.0288650000 -0.1446700000 0.0393210000
C 2.1445110000 0.9763020000 -0.2395450000
H 2.7025630000 1.8730690000 -0.4716710000
C 0.7593380000 0.9787970000 -0.2389420000
C 0.6905650000 -1.3228200000 0.3331680000
H 0.1381070000 -2.2246190000 0.5675510000
C 2.7831140000 -0.2150940000 0.0647400000
C 2.0779800000 -1.3734320000 0.3573180000
H 2.6123460000 -2.2840710000 0.5942880000
B -1.5921620000 -0.1547180000 0.0355930000
S -2.3976480000 -1.7270710000 -0.4201030000
H -1.7418780000 2.1506630000 0.7324260000
H -3.6707270000 -1.3739840000 -0.1695930000
