15
0 2
N -0.4330170000 1.3524910000 0.0853960000
N -0.4330170000 -1.3524910000 0.0853960000
C 1.0006820000 1.2789080000 -0.2117430000
C 1.6178940000 0.0000000000 0.3621840000
C 1.0006820000 -1.2789080000 -0.2117430000
Si -1.5076240000 -0.0000000000 -0.0918970000
H -0.8166990000 2.2794780000 -0.0338310000
H -0.8166990000 -2.2794780000 -0.0338310000
H 1.2046610000 -1.3223710000 -1.2941450000
H 1.4973690000 -2.1461010000 0.2365340000
H 1.4889840000 0.0000000000 1.4489730000
H 2.6923040000 0.0000000000 0.1506250000
H 1.4973690000 2.1461010000 0.2365340000
H 1.2046610000 1.3223710000 -1.2941460000
H -2.4985380000 0.0000000000 1.0421260000
