20
0 1
Si 1.1836880000 1.4490060000 0.0288460000
Si -1.1836870000 1.4490070000 -0.0288460000
C -1.8847320000 -0.1016380000 0.8518070000
H -1.6456640000 1.5807370000 -1.4316320000
H -1.6890630000 2.6152010000 0.7371440000
N -2.1306030000 -1.2744360000 0.4264920000
C 1.8847330000 -0.1016390000 -0.8518070000
H 1.6456650000 1.5807360000 1.4316320000
H 1.6890650000 2.6152000000 -0.7371440000
N 2.1306020000 -1.2744370000 -0.4264920000
C -1.8918200000 -1.6246160000 -0.9613350000
H -2.8211410000 -2.0145670000 -1.3867570000
H -1.1633160000 -2.4399570000 -0.9939830000
H -1.5287850000 -0.8032420000 -1.5934340000
C 1.8918180000 -1.6246180000 0.9613340000
H 1.1633130000 -2.4399580000 0.9939820000
H 1.5287820000 -0.8032440000 1.5934340000
H 2.8211380000 -2.0145700000 1.3867580000
H -2.0910910000 0.0543350000 1.9186930000
H 2.0910910000 0.0543330000 -1.9186930000
