20
0 1
C 2.8196430000 0.1376230000 0.0002610000
C 1.7490910000 1.0356340000 0.0001550000
C 0.4410660000 0.5596880000 -0.0001050000
C 2.5816650000 -1.2306060000 0.0001030000
C 1.2710850000 -1.7089600000 -0.0001420000
C 0.1974650000 -0.8271640000 -0.0002220000
H 3.4082950000 -1.9310520000 0.0001700000
H 1.0555560000 -2.7704790000 -0.0002630000
O -1.0653910000 -1.3349170000 -0.0004760000
Si -2.6060870000 -0.7026410000 0.0002970000
H 3.8337100000 0.5193120000 0.0004590000
O -0.6847430000 1.3374920000 -0.0003060000
C -0.5441510000 2.7512430000 -0.0000630000
H -1.5561390000 3.1523760000 -0.0002250000
H -0.0155400000 3.0973550000 -0.8945110000
H -0.0159290000 3.0970890000 0.8947170000
H 1.9417710000 2.1003350000 0.0002510000
H -2.9072470000 0.0827450000 -1.2142810000
H -2.9063030000 0.0822230000 1.2154530000
H -3.4470680000 -1.9182750000 0.0004130000
