11
0 2
Si 0.3211830000 1.0657680000 -0.0000000000
C -0.1401790000 -0.3266250000 1.2205590000
C -0.1401790000 -0.3266250000 -1.2205590000
C -0.1401790000 -1.3063810000 0.0000000000
H 0.5325580000 -0.5984630000 -2.0337850000
H -1.1393910000 -0.1755940000 -1.6408450000
H 0.7719250000 -1.9075400000 0.0000000000
H -0.9888610000 -1.9961070000 0.0000000000
H -1.1393910000 -0.1755940000 1.6408450000
H 0.5325580000 -0.5984630000 2.0337850000
H -0.5427380000 2.2887910000 -0.0000000000
