9
0 1
S 1.0220150000 -1.1850620000 0.0243580000
N 2.3745410000 0.0876850000 0.0364090000
O 2.2043600000 1.1260940000 0.6076880000
O 3.3419500000 -0.3264010000 -0.5611790000
O -0.1290810000 -0.4078770000 0.9430950000
C -1.2264990000 0.1939630000 0.3260380000
F -1.9112560000 0.7470950000 1.3248000000
Cl -2.2701490000 -1.0347030000 -0.4747410000
Cl -0.7740600000 1.4655880000 -0.8453100000
