12
0 1
C -0.0917210000 -1.1029520000 1.3766650000
C -0.0917210000 0.2412430000 1.2578180000
P 0.1998880000 -2.2196950000 -0.0000000000
C -0.0917210000 -1.1029520000 -1.3766650000
C -0.0917210000 0.2412430000 -1.2578180000
C -0.0303470000 0.9754230000 0.0000000000
H -0.1429150000 -1.5494990000 2.3652170000
H -0.1529710000 0.8580440000 2.1482560000
S 0.0614940000 2.6332280000 0.0000000000
H -1.0070740000 -2.9653610000 -0.0000000000
H -0.1529710000 0.8580440000 -2.1482560000
H -0.1429150000 -1.5494990000 -2.3652170000
