11
0 1
S -0.8969310000 -1.0306330000 -0.2037800000
O 0.2152580000 -0.3464800000 0.7821720000
O 1.0694030000 0.6716390000 0.0317370000
C -2.2574420000 0.1922960000 -0.0265350000
F -3.2963530000 -0.3338240000 -0.6974710000
F -1.9518750000 1.3774840000 -0.5557840000
F -2.6080100000 0.3829580000 1.2446960000
C 2.3261280000 0.1294590000 -0.0527980000
F 2.3371830000 -1.0198200000 -0.7465160000
F 2.8652590000 -0.1127520000 1.1425250000
F 3.0606280000 1.0346560000 -0.6957600000
