19
0 1
S -0.5685660000 -1.3978870000 -0.2588000000
B -1.6123140000 0.0559630000 -0.0269880000
S -1.0229670000 1.7396340000 -0.4089290000
C 1.0657720000 -0.7723680000 -0.8491260000
C 2.0210710000 -0.3756500000 0.2766690000
H 0.8905820000 0.0524520000 -1.5423940000
C 3.3886200000 0.0764490000 -0.2541190000
H 2.1509040000 -1.2264260000 0.9541960000
H 1.5740080000 0.4282020000 0.8700260000
C 4.3587200000 0.4684650000 0.8641760000
H 3.2510440000 0.9261820000 -0.9331200000
H 3.8292910000 -0.7279350000 -0.8553370000
H 3.9599310000 1.2936820000 1.4616380000
H 5.3227760000 0.7867140000 0.4590110000
H 4.5429250000 -0.3716620000 1.5406020000
H 1.4753390000 -1.6019270000 -1.4301740000
S -3.3138990000 -0.1613950000 0.5916610000
H -2.1590930000 2.3948560000 -0.1132970000
H -3.2943090000 -1.5009610000 0.7152670000
