21
0 1
C -3.3043430000 0.3461020000 -0.1072940000
O -2.8770080000 1.2111640000 -0.8082700000
O -2.5667170000 -0.2994210000 0.8705940000
O -1.2249200000 0.2108900000 0.9304800000
C -0.4069310000 -0.4231510000 0.0022970000
O -0.7528640000 -1.3320830000 -0.6852660000
C -4.6814490000 -0.2626610000 -0.1224920000
H -5.3899170000 0.4892370000 -0.4667570000
H -4.9670890000 -0.6427830000 0.8576240000
H -4.6777700000 -1.0956700000 -0.8300720000
C 0.9159890000 0.2667630000 0.0327250000
C 0.9456570000 1.6681960000 0.0551080000
C 2.1517050000 2.3553020000 0.0069520000
C 3.3480630000 1.6449420000 -0.0497910000
C 3.3392130000 0.2534570000 -0.0621580000
C 2.1294820000 -0.4334230000 -0.0273290000
H 2.1563250000 3.4383720000 0.0127280000
H 4.2640110000 -0.3072450000 -0.0976340000
H 0.0059680000 2.2035800000 0.0893080000
H 4.2954200000 2.1703040000 -0.0841290000
Cl 2.1800470000 -2.1807860000 -0.0182050000
