24
0 1
Si 1.1564890000 -1.0268270000 -1.0222090000
Si -0.8673050000 -1.2609690000 0.1885430000
P -2.0596670000 0.6777800000 0.3356700000
H -0.5595880000 -1.6820940000 1.5811750000
H -1.6809070000 -2.3483290000 -0.4294550000
P 2.7961330000 0.3186490000 -0.1820900000
H 0.8493810000 -0.5269700000 -2.3889490000
H 1.7464880000 -2.3838210000 -1.1707420000
C -2.6305710000 0.8419220000 -1.4357260000
H -3.1006880000 -0.0651740000 -1.8241350000
H -1.7827140000 1.1014860000 -2.0730950000
H -3.3515920000 1.6615460000 -1.4930770000
C -3.6208870000 0.0180130000 1.1224740000
H -3.4118120000 -0.2718420000 2.1544110000
H -4.0426530000 -0.8391010000 0.5914170000
H -4.3651400000 0.8187140000 1.1455480000
C 2.8165920000 -0.2057490000 1.6100860000
H 3.1646630000 -1.2386340000 1.6827820000
H 1.8454160000 -0.1229700000 2.1028940000
H 3.5340620000 0.4230000000 2.1439250000
C 1.9048180000 1.9539650000 -0.0533990000
H 1.6947420000 2.3288220000 -1.0577810000
H 2.5743690000 2.6698020000 0.4311080000
H 0.9707020000 1.9093590000 0.5109890000
