14
0 1
Cl -2.6140130000 -0.7446310000 0.0000140000
N -1.1995180000 0.1926740000 0.0000020000
N -1.2651150000 1.5610390000 -0.0000390000
N -0.0608840000 2.0092750000 0.0000230000
C 0.0941790000 -0.2539750000 -0.0000030000
C 0.8228480000 0.9476290000 -0.0000020000
C 2.2241620000 0.9258500000 -0.0000040000
H 2.7856560000 1.8516330000 0.0000030000
C 2.8407780000 -0.3113530000 -0.0000050000
H 3.9224310000 -0.3719520000 -0.0000010000
C 2.0897770000 -1.5101470000 -0.0000050000
H 2.6165160000 -2.4573110000 -0.0000030000
C 0.7051950000 -1.5107850000 -0.0000040000
H 0.1305890000 -2.4278850000 -0.0000020000
