12
0 1
F -1.9525720000 1.5190510000 0.4094450000
B -1.8824750000 0.2614450000 0.0329470000
F -2.9930690000 -0.4025720000 -0.1853220000
C -0.4781240000 -0.4889370000 -0.1541510000
O -0.3660360000 -1.6625760000 -0.3493650000
O 0.5775320000 0.4065360000 -0.1125960000
C 1.9021030000 -0.0071790000 0.1462850000
O 2.1605170000 -0.9530500000 0.8173350000
C 2.8587540000 0.9536150000 -0.4973940000
H 2.7643170000 0.8852300000 -1.5843140000
H 3.8754440000 0.7092230000 -0.1972330000
H 2.6108870000 1.9777340000 -0.2117270000
