7
0 1
N -1.1857660000 -0.1795680000 0.0000020000
B 0.0466450000 0.4995850000 0.0000130000
O 1.2681040000 -0.1229370000 -0.0000060000
H 0.0531020000 1.6922190000 -0.0000080000
H 1.2216600000 -1.0837670000 -0.0000090000
H -1.2913180000 -1.1826750000 -0.0000030000
H -2.0611370000 0.3167640000 -0.0000070000
