8
0 1
C 0.7749120000 0.0000030000 -0.0000030000
F 1.2296510000 1.2251500000 0.2768730000
C -0.7749120000 -0.0000030000 0.0000030000
F 1.2296340000 -0.8523630000 0.9225660000
F -1.2296160000 0.3727880000 1.1994610000
F -1.2296340000 0.8523630000 -0.9225660000
F -1.2296510000 -1.2251500000 -0.2768730000
F 1.2296160000 -0.3727880000 -1.1994610000
