9
0 1
F -2.0881660000 0.7184130000 0.2129660000
S -1.2833670000 -0.6507170000 -0.2858580000
S 0.7244350000 -0.0804750000 0.1579960000
O 1.4197290000 -1.2984820000 -0.1960690000
C 1.0814360000 1.2008990000 -1.0452550000
O 0.8036020000 0.5115040000 1.4674100000
H 1.0459710000 0.7624460000 -2.0399910000
H 2.0785070000 1.5750310000 -0.8077690000
H 0.3366670000 1.9862990000 -0.9223400000
