27
0 1
C -3.4607370000 0.8405710000 -0.9914920000
C -3.8567840000 -0.4662870000 -0.7109030000
C -2.9717670000 -1.3399170000 -0.0943620000
C -2.1781920000 1.2594310000 -0.6551410000
C -1.2923280000 0.3820620000 -0.0310830000
C -1.6687580000 -0.9445480000 0.2545770000
H -4.1474260000 1.5324840000 -1.4646590000
H -4.8553010000 -0.8006160000 -0.9674890000
H -3.2833220000 -2.3544020000 0.1296760000
H -1.8566750000 2.2744920000 -0.8503340000
C 1.4942490000 -1.0581350000 0.2296370000
C 1.2013240000 0.2829280000 -0.0773220000
N -0.0195900000 0.8708560000 0.3863230000
N -0.0577830000 1.9585950000 1.2247420000
O 1.0150940000 2.4146430000 1.5416740000
C 2.7469640000 -1.5599380000 -0.1660100000
C 3.6566800000 -0.7733930000 -0.8572700000
C 3.3362480000 0.5472050000 -1.1714700000
C 2.1106770000 1.0725560000 -0.7805470000
H 2.9918540000 -2.5899150000 0.0696980000
H 4.6148860000 -1.1863410000 -1.1506610000
H 4.0429020000 1.1701010000 -1.7069840000
H 1.8622690000 2.1033300000 -0.9943820000
C -0.7876840000 -1.9098200000 0.9053620000
C 0.5590480000 -1.9537590000 0.9043240000
H -1.3027060000 -2.7354010000 1.3882020000
H 1.0207320000 -2.8107500000 1.3862890000
