10
0 1
Si 0.8082500000 0.8608930000 -0.0000670000
Si -0.8082500000 -0.8608920000 -0.0000610000
C -2.4669270000 -0.0343070000 -0.0000030000
H -0.7220770000 -1.6884680000 1.2182380000
H -0.7220720000 -1.6884470000 -1.2183740000
N -3.4809940000 0.5206890000 0.0001450000
C 2.4669270000 0.0343070000 0.0000010000
H 0.7220760000 1.6884810000 1.2182240000
H 0.7220750000 1.6884370000 -1.2183880000
N 3.4809930000 -0.5206900000 0.0001560000
