20
0 1
Cl 2.3493140000 -1.8678540000 1.1915610000
Cl 2.7786810000 -0.1345470000 -1.0778160000
O 0.0003060000 3.3788570000 0.0000850000
C -0.6236460000 2.3775980000 0.8279270000
H -1.7124530000 2.4433650000 0.7955470000
H -0.2871460000 2.4370690000 1.8686870000
C 0.0000180000 1.2159990000 -0.0000500000
N 1.5369050000 -0.7583450000 0.0549920000
C 0.9626750000 0.3632490000 0.8367010000
H 0.3975330000 -0.1294430000 1.6302670000
H 1.7368010000 0.9869080000 1.2949280000
C 0.6238050000 2.3775350000 -0.8280220000
H 1.7126330000 2.4430380000 -0.7959150000
H 0.2870480000 2.4371950000 -1.8686910000
C -0.9626840000 0.3632640000 -0.8367580000
N -1.5369780000 -0.7582560000 -0.0549880000
Cl -2.3494780000 -1.8677620000 -1.1914940000
Cl -2.7786950000 -0.1343140000 1.0778070000
H -0.3975710000 -0.1295040000 -1.6302970000
H -1.7367760000 0.9869400000 -1.2950180000
