29
0 1
C -0.4072780000 1.0548060000 -0.1539590000
C -1.3009640000 -0.1797560000 -0.4864610000
C -0.6017770000 -1.5333490000 -0.2954200000
C 0.5284140000 -1.5107630000 0.7004260000
C 1.6234400000 -0.5011290000 0.2571150000
H 0.9472690000 -2.5123430000 0.7962480000
H 0.1183020000 -1.2161210000 1.6710100000
N 0.9481400000 0.5680110000 -0.5477890000
C -0.8047860000 2.1825140000 -1.1216900000
H -0.6191030000 1.8849440000 -2.1570360000
H -0.2452220000 3.0935210000 -0.9116230000
H -1.8701890000 2.3972920000 -1.0105750000
C -0.5149630000 1.5961390000 1.2843420000
H -0.4523400000 0.8217090000 2.0479350000
H -1.4643130000 2.1141350000 1.4259560000
H 0.2918440000 2.3140190000 1.4433800000
C 2.5963600000 -1.2030160000 -0.7073140000
H 2.0576710000 -1.6470080000 -1.5468840000
H 3.1491240000 -1.9917740000 -0.1903090000
H 3.3201260000 -0.4847430000 -1.0981450000
C 2.4068370000 0.0091410000 1.4811280000
H 1.7670800000 0.5171140000 2.2020910000
H 3.1911540000 0.6996690000 1.1727190000
H 2.8747370000 -0.8405760000 1.9860870000
O 1.8472980000 1.6834600000 -0.6385090000
H 2.0127810000 1.7572820000 -1.5842430000
O -0.9341000000 -2.5004200000 -0.9343800000
Cl -2.8560880000 -0.2174950000 0.4675030000
H -1.6196850000 -0.1376230000 -1.5255200000
