13
0 2
S -1.4843690000 -1.0987210000 -0.1006640000
C 0.0132690000 -0.1950400000 0.4838010000
O -0.1962220000 1.1572590000 0.7219070000
O 0.9673060000 -0.4571520000 -0.5061850000
C -0.4919190000 1.9703780000 -0.4212760000
H -0.6605680000 2.9729410000 -0.0322350000
H -1.3894070000 1.6133950000 -0.9321260000
H 0.3443670000 1.9783490000 -1.1235460000
C 2.3112390000 -0.5093330000 -0.0193900000
H 2.9494870000 -0.6452110000 -0.8911210000
H 2.4482270000 -1.3546970000 0.6641800000
H 2.5792800000 0.4216930000 0.4897570000
H 0.3143130000 -0.6038140000 1.4511300000
