17
0 1
C -2.0400930000 -0.1787280000 0.0416400000
C -1.1824740000 -1.2698020000 -0.0023030000
C 0.1933860000 -1.0852590000 -0.0734880000
C -1.5051290000 1.1034620000 0.0159810000
C -0.1307760000 1.2717780000 -0.0356130000
C 0.7634750000 0.1933100000 -0.0752440000
F -3.3632600000 -0.3590570000 0.1041310000
F -1.6840490000 -2.5089600000 0.0039080000
F 0.9687680000 -2.1773530000 -0.1604370000
F -2.3124650000 2.1678130000 0.0533950000
F 0.3728890000 2.5217420000 -0.0606340000
B 3.2492860000 -0.3402430000 0.2540960000
O 4.4700020000 0.2384530000 0.0550290000
H 5.1979950000 -0.3113730000 0.3518750000
N 2.1299780000 0.4457700000 -0.1493850000
H 3.1168830000 -1.4106620000 0.7459390000
H 2.3415400000 1.3890100000 -0.4519460000
