17
0 1
B 2.2548390000 1.3219490000 -0.0001240000
C -0.3812930000 -0.6758700000 0.0000570000
C -1.2144990000 0.0822920000 -1.0868270000
C -1.2144940000 0.0824680000 1.0868210000
C -2.2698420000 0.4177050000 -0.0000270000
H -0.7069850000 0.9828220000 1.4458580000
H -1.5429280000 -0.4951790000 1.9530840000
H -3.0906010000 -0.3039250000 0.0000330000
H -2.6919890000 1.4250460000 -0.0001080000
H -1.5429370000 -0.4954960000 -1.9529940000
H -0.7069920000 0.9825880000 -1.4460110000
Si 1.5016910000 -0.5490470000 0.0000410000
H -0.6664760000 -1.7335210000 0.0001430000
H 2.0522230000 -1.2540570000 -1.1945860000
H 2.0522280000 -1.2538490000 1.1947900000
H 3.4386360000 1.4711490000 -0.0001210000
H 1.5887270000 2.3117630000 -0.0001910000
