10
0 2
Si 2.2696660000 0.0017900000 0.0795180000
P -0.7790690000 -0.0399640000 0.1081930000
O -0.5146760000 1.5191990000 -0.1393240000
H -1.2686530000 2.0629980000 0.1165190000
O -1.3855370000 -0.5290350000 -1.2893540000
H -2.0343740000 -1.2301390000 -1.1581200000
O -1.5958900000 -0.3902060000 1.2677150000
O 0.6979910000 -0.5837790000 0.0832380000
H 3.1206150000 -1.2120960000 0.0665470000
H 2.4780220000 0.8242090000 -1.1392950000
