18
0 1
F 2.9363440000 -0.6781090000 0.0003050000
F 2.1942050000 1.4441060000 0.0002170000
B 1.8893990000 0.1542790000 -0.0002710000
C 0.4593040000 -0.4270100000 -0.0001540000
C -0.7170630000 0.3610140000 -0.0000810000
C -1.9755960000 -0.2508980000 0.0000070000
H -2.8790800000 0.3426550000 0.0000610000
C -2.0723860000 -1.6402310000 0.0000290000
C 0.3151100000 -1.8237980000 -0.0001260000
H 1.2126240000 -2.4313130000 -0.0001810000
C -0.9315880000 -2.4373970000 -0.0000380000
H -1.0141110000 -3.5173620000 -0.0000210000
H -3.0554630000 -2.0984610000 0.0000990000
O -0.5443740000 1.7053950000 -0.0001040000
C -1.6848910000 2.5549880000 -0.0000380000
H -1.2923740000 3.5699400000 -0.0000740000
H -2.2978830000 2.4030170000 0.8946670000
H -2.2980010000 2.4029990000 -0.8946600000
