11
0 1
P 0.0547290000 -0.9127530000 -0.1404510000
N -1.4547220000 -0.2949980000 0.4428460000
O -1.8384230000 0.9966230000 -0.0825890000
C 1.1790930000 0.5312940000 -0.2006560000
C 2.4422420000 0.4379370000 0.2140650000
H 0.7862220000 1.4717900000 -0.5772500000
H 2.8475220000 -0.4925490000 0.6017670000
H 3.1228120000 1.2837200000 0.1777590000
H -2.6483450000 0.7903590000 -0.5624960000
H -0.3228890000 -0.9013260000 -1.5055320000
H -1.4438360000 -0.1840840000 1.4528530000
