8
0 2
C 0.1811690000 0.4785370000 -0.0000110000
O 1.2552670000 -0.3652300000 -0.0000130000
C -1.1889860000 -0.1945980000 -0.0000010000
H 0.3013750000 1.1609880000 -0.8657180000
H 0.3014550000 1.1607210000 0.8659100000
H -1.3027700000 -0.8256720000 -0.8846140000
H -1.9926260000 0.5480320000 0.0001130000
H -1.3026690000 -0.8258610000 0.8844890000
