8
0 1
P 1.1834000000 -0.0789170000 -0.1173310000
B -0.6286160000 0.5847250000 0.0191930000
N -1.7426550000 -0.2476050000 0.0103420000
H -1.6942970000 -1.2551210000 0.0284460000
H -2.6858020000 0.1096980000 -0.0108190000
H -0.7982700000 1.7656480000 0.0046490000
H 1.0449960000 -1.2908480000 0.6089590000
H 1.7240410000 0.6639890000 0.9603720000
