8
0 1
C 0.2312560000 -0.7307650000 -0.4904860000
C -0.2312560000 0.7307650000 -0.4904860000
Cl -1.1908900000 -1.8117580000 -0.6908720000
Cl 1.1908900000 -1.1758530000 0.9438340000
H 0.8646760000 -0.8940470000 -1.3574340000
H -0.8646760000 0.8940470000 -1.3574340000
Cl 1.1908900000 1.8117580000 -0.6908720000
Cl -1.1908900000 1.1758530000 0.9438340000
