16
0 1
Si -0.6239060000 1.1058960000 -0.0031360000
N -1.6812970000 -0.4453790000 -0.0176440000
O -1.2008590000 -1.5016620000 -0.4230840000
O -2.8357100000 -0.3109240000 0.3764640000
C 1.1184680000 0.6677880000 -0.4971630000
C 1.8818570000 -0.2222410000 0.5041390000
H 1.6544830000 1.6148220000 -0.6504920000
H 1.0747570000 0.1814900000 -1.4785070000
C 3.3110710000 -0.5321720000 0.0489570000
H 1.3316440000 -1.1576850000 0.6392010000
H 1.9107590000 0.2682820000 1.4837810000
H 3.3120030000 -1.0567460000 -0.9109680000
H 3.8265070000 -1.1658730000 0.7754780000
H 3.8969670000 0.3843900000 -0.0708700000
H -0.7614780000 1.6007550000 1.3785400000
H -1.3177030000 1.9861210000 -0.9613980000
