9
0 1
F -2.9807940000 0.4676930000 -0.4405910000
C -0.7434270000 0.1650430000 0.2514800000
C -2.1526780000 -0.3263730000 0.3570200000
H -2.5175760000 -0.2398240000 1.3865680000
H -2.2215730000 -1.3637660000 0.0244790000
N 0.2047640000 -0.6503800000 0.0000540000
S 1.7762240000 -0.5179890000 -0.1475020000
F 2.1835500000 1.1081890000 0.0955100000
H -0.5619570000 1.2291120000 0.4033430000
