21
0 1
C -3.2486700000 0.0847290000 0.4340970000
O -4.4312910000 0.0992730000 0.2182130000
S -2.2744370000 -0.7812220000 -0.8152770000
O -0.6595220000 -0.7568770000 -0.2482850000
C 0.1096730000 0.3694820000 -0.4750720000
O -0.3467250000 1.4152470000 -0.8477710000
C -2.5468440000 0.7063640000 1.6087850000
H -3.2984990000 1.0090780000 2.3375240000
H -1.9877150000 1.5813170000 1.2678500000
H -1.8387760000 0.0075370000 2.0576960000
C 1.5404880000 0.1121650000 -0.1636330000
C 2.0125690000 -1.1445950000 0.2337930000
C 3.3651850000 -1.3197320000 0.5064480000
C 4.2484620000 -0.2480820000 0.3840630000
C 3.7801810000 1.0045980000 -0.0128560000
C 2.4303910000 1.1863530000 -0.2861670000
H 1.3213000000 -1.9713400000 0.3246730000
H 3.7310180000 -2.2927310000 0.8129620000
H 5.3021990000 -0.3890860000 0.5968200000
H 4.4677130000 1.8367550000 -0.1092770000
H 2.0454450000 2.1491710000 -0.5978170000
