20
0 1
S -0.8652810000 1.2848670000 0.5627510000
S 0.8652700000 1.2848410000 -0.5628220000
C 1.8008020000 -0.1245180000 0.1729360000
C -1.8007900000 -0.1245640000 -0.1728990000
O -1.3908450000 -0.7740910000 -1.0873500000
O 1.3909150000 -0.7739150000 1.0875060000
C 4.1104180000 -1.1733810000 0.2525980000
C -4.1104160000 -1.1734020000 -0.2525970000
H -5.0046910000 -1.3768210000 0.3402110000
H -3.6745160000 -2.1235380000 -0.5632480000
H -4.4119470000 -0.6346010000 -1.1534360000
H 5.0046400000 -1.3769040000 -0.3402550000
H 3.6745270000 -2.1234630000 0.5634260000
H 4.4120340000 -0.6344510000 1.1533310000
C -3.1070100000 -0.3597790000 0.5655290000
C 3.1069580000 -0.3598620000 -0.5655650000
H -2.8408300000 -0.8872280000 1.4895750000
H -3.5244270000 0.6031670000 0.8760970000
H 3.5243650000 0.6030310000 -0.8763110000
H 2.8406930000 -0.8874450000 -1.4895100000
