15
0 1
H 3.6656020000 -0.1980270000 0.0168430000
O -2.5162380000 1.1240390000 0.1032960000
H -2.0306770000 1.9432170000 0.2237980000
O -2.3589120000 -1.2003220000 -0.1136750000
H -3.3174800000 -1.1107530000 -0.0890690000
B -1.7312220000 0.0049480000 -0.0040250000
N 1.8976440000 -1.2550620000 0.0657510000
C 2.5824290000 -0.1084130000 0.0092510000
C 1.9798980000 1.1457180000 -0.0586460000
H 2.5859700000 2.0427350000 -0.1074270000
C 0.5915030000 1.2079080000 -0.0643330000
H 0.1078430000 2.1798910000 -0.1266900000
C -0.1632310000 0.0297690000 -0.0043430000
C 0.5648990000 -1.1703570000 0.0557810000
H 0.0295470000 -2.1138550000 0.0991830000
