9
0 1
F -1.2485210000 1.0070200000 0.1783170000
S -0.8067920000 -0.5647980000 -0.2128410000
C 0.8745440000 -0.5269110000 0.4441060000
C 1.7973990000 0.4767780000 -0.2413990000
H 0.8190110000 -0.3609270000 1.5225290000
H 1.9088100000 0.2474120000 -1.3029090000
H 2.7865890000 0.4640330000 0.2255310000
H 1.3906010000 1.4851620000 -0.1511110000
H 1.2086950000 -1.5612980000 0.2903220000
