8
0 1
Si 1.1756980000 -0.0000040000 0.0000050000
Si -1.1756980000 0.0000040000 -0.0000060000
Cl -1.8632790000 1.9323650000 -0.1203120000
Cl 1.8632800000 -1.9323650000 0.1203120000
Cl -1.8633320000 -0.8619970000 1.7335950000
Cl 1.8633320000 0.8619960000 -1.7335950000
Cl -1.8632690000 -1.0703520000 -1.6133370000
Cl 1.8632690000 1.0703530000 1.6133370000
