9
0 2
B 1.5254390000 -0.2486840000 -0.0921680000
C 0.2025410000 0.5357960000 0.0138530000
C -1.1189560000 -0.2632750000 -0.0109670000
H 0.3215580000 1.0232150000 1.0024280000
H 0.1640000000 1.3776690000 -0.6875810000
H -1.1166420000 -1.0552130000 0.7418680000
H -1.2716090000 -0.7351940000 -0.9849180000
H -1.9803990000 0.3833780000 0.1802620000
H 1.7543930000 -1.3855600000 0.1914660000
