9
0 2
S -1.7731240000 -0.3408580000 -0.0000280000
C -0.1046090000 0.2331760000 0.0000450000
O -0.0136800000 1.4553660000 -0.0000160000
N 0.9244240000 -0.6348300000 0.0000260000
C 2.3195610000 -0.2093510000 0.0000110000
H 0.7059900000 -1.6188230000 0.0000270000
H 2.3403440000 0.8785170000 -0.0000060000
H 2.8362040000 -0.5740360000 -0.8913080000
H 2.8362130000 -0.5740060000 0.8913380000
