9
0 1
F 2.2799180000 0.5132020000 0.0000030000
S 1.2074070000 -0.7391840000 -0.0000040000
C -0.2966840000 0.2350120000 -0.0000030000
O -0.3655920000 1.4257940000 0.0000000000
O -1.3034940000 -0.6491790000 -0.0000000000
C -2.6372600000 -0.0864080000 0.0000050000
H -3.3069480000 -0.9421180000 0.0000050000
H -2.7872350000 0.5228530000 -0.8915200000
H -2.7872300000 0.5228500000 0.8915330000
