19
0 1
C 1.5675780000 -1.2632970000 0.2140790000
C 0.0697580000 -1.2651220000 -0.1322600000
C 2.2710290000 -0.0049930000 -0.3126170000
H 2.0385690000 -2.1630850000 -0.1937090000
H 1.6866990000 -1.3162930000 1.3036780000
C -0.6166380000 0.0122030000 0.3736910000
H -0.4180600000 -2.1461700000 0.2947550000
H -0.0533190000 -1.3282390000 -1.2206100000
C 1.5761360000 1.2701620000 0.1839630000
H 2.2606370000 -0.0177850000 -1.4099180000
H 3.3229370000 -0.0057640000 -0.0101700000
C 0.0781940000 1.2685770000 -0.1653600000
H 2.0526360000 2.1570240000 -0.2453970000
H 1.6965890000 1.3484900000 1.2720520000
H -0.4041340000 2.1656710000 0.2354090000
H -0.0504150000 1.3014100000 -1.2532290000
S -2.4029390000 -0.0748620000 -0.1049100000
H -2.7793040000 1.0810210000 0.4693390000
H -0.5821330000 0.0163330000 1.4673830000
