10
0 1
F 1.8464280000 -0.9580500000 -0.0000200000
O 1.4118430000 0.4398860000 -0.0000050000
C 0.0177320000 0.5372020000 0.0000210000
O -0.3773450000 1.6734360000 -0.0000070000
N -0.6651600000 -0.6149880000 0.0000140000
C -2.1213030000 -0.6380530000 0.0000050000
H -0.1398460000 -1.4745770000 0.0000180000
H -2.4776190000 0.3902530000 -0.0000130000
H -2.4994170000 -1.1448720000 0.8909200000
H -2.4994060000 -1.1449000000 -0.8908980000
