11
0 1
Si -1.1539430000 -0.1229620000 -0.0000000000
C 0.5604960000 0.6651680000 -0.0000000000
C 1.7223470000 -0.3440750000 0.0000000000
H 0.6319960000 1.3219670000 -0.8746310000
H 1.6907870000 -0.9906870000 0.8816770000
H 2.6913850000 0.1633310000 0.0000000000
H 1.6907870000 -0.9906880000 -0.8816760000
H 0.6319950000 1.3219670000 0.8746290000
H -1.3348070000 -0.9754400000 -1.2015230000
H -2.2091870000 0.9199000000 -0.0000010000
H -1.3348080000 -0.9754380000 1.2015240000
