9
0 2
Cl -2.3814060000 0.1130820000 -0.0000020000
B -0.8416060000 0.8524990000 -0.0000040000
S 0.7595880000 -0.1542960000 0.0000010000
O 0.8137050000 -0.8661980000 -1.2691690000
C 2.0825450000 1.0558110000 -0.0000060000
O 0.8137050000 -0.8661830000 1.2691800000
H 2.0064380000 1.6629050000 -0.9012940000
H 3.0110920000 0.4822300000 -0.0000020000
H 2.0064380000 1.6629150000 0.9012750000
