9
0 2
F -2.1516090000 -0.1075930000 -0.0394750000
B -1.0323680000 -0.7683550000 -0.1965550000
C 0.3980000000 -0.0380630000 -0.0284800000
O 1.4351410000 -0.6704650000 -0.7113290000
H 1.3360040000 -1.6179430000 -0.5666650000
O 0.6154150000 -0.0140850000 1.3632180000
H 1.5187650000 0.3100680000 1.4969090000
O 0.3875780000 1.2555400000 -0.5744440000
H -0.2215270000 1.7784480000 -0.0408700000
