24
0 1
C -0.9623960000 -1.3814380000 -0.1489140000
C -2.3465370000 -0.9672790000 0.3703800000
C -2.7543220000 0.4153480000 -0.1557210000
C -1.6842280000 1.4677430000 0.1630630000
C -0.3004950000 1.0466650000 -0.3537370000
C 1.4991690000 -0.7816630000 -0.3714630000
C 0.1249530000 -0.3372420000 0.1721610000
Si 3.0052300000 0.2295340000 0.1576440000
H -1.0085350000 -1.5173510000 -1.2382360000
H -0.6763770000 -2.3515560000 0.2723230000
H -2.3285440000 -0.9447810000 1.4677840000
H -3.0926940000 -1.7172820000 0.0882610000
H -3.7186570000 0.7142270000 0.2678260000
H -2.8945270000 0.3608250000 -1.2432160000
H -1.6335460000 1.6126360000 1.2500110000
H -1.9634570000 2.4358190000 -0.2653210000
H 0.4416730000 1.8035130000 -0.0799040000
H -0.3171660000 1.0153440000 -1.4520690000
H 1.4711110000 -0.8107470000 -1.4687670000
H 1.6953670000 -1.8140170000 -0.0541160000
H 0.1972760000 -0.2674560000 1.2675380000
H 3.0131150000 1.5919120000 -0.4279990000
H 4.2425550000 -0.4617070000 -0.2814050000
H 3.0423350000 0.3643420000 1.6356730000
