14
0 1
F -1.1081370000 2.1339980000 -0.3220240000
F 2.3202710000 -0.9375940000 0.1246680000
O 1.6285730000 1.8260750000 0.1591610000
O -0.0877050000 -2.4452970000 -0.1698220000
N -0.5687630000 0.9778940000 0.2510350000
N 1.0797910000 -0.4343840000 -0.1001090000
C 0.8371180000 0.9405070000 0.1015940000
C -0.0399960000 -1.2507910000 -0.1800160000
C -1.1932620000 -0.2385740000 -0.2966430000
H -1.3825100000 -0.0836210000 -1.3663790000
C -2.4572330000 -0.6584910000 0.4325040000
H -2.2633870000 -0.7847000000 1.4987190000
H -2.8159060000 -1.6051920000 0.0258740000
H -3.2313090000 0.0991760000 0.3021670000
