12
0 1
Cl 2.6881560000 -0.1143360000 -0.0665930000
S 1.0035980000 -1.2635110000 -0.3797470000
C -0.3006900000 -0.0694480000 -0.0275070000
N -1.5876270000 -0.9070570000 0.1120390000
O -2.4909830000 -0.4305940000 0.7483920000
O -1.5481820000 -1.9815030000 -0.4594790000
N -0.1602230000 0.7280640000 1.3164790000
O 0.2289760000 0.0735040000 2.2534560000
O -0.5004400000 1.8853620000 1.2852410000
N -0.5301260000 0.9600350000 -1.1703540000
O -1.5963290000 0.9016220000 -1.7407770000
O 0.4061760000 1.6902720000 -1.3910920000
