19
0 1
B 1.0014180000 0.0000000000 -0.0986310000
Cl 2.7712070000 0.0000000000 0.1358910000
O 0.3825980000 1.2008530000 -0.1785290000
O 0.3825980000 -1.2008530000 -0.1785290000
C -1.7074210000 0.0000000000 0.1914890000
C -1.0516990000 -1.2616050000 -0.3680050000
C -1.0516990000 1.2616050000 -0.3680050000
C -1.5448100000 2.5453390000 0.2781570000
H -1.3680820000 2.5222110000 1.3564170000
H -2.6154620000 2.6782300000 0.1007920000
H -1.0135780000 3.4034050000 -0.1374770000
H -1.2236740000 1.3095710000 -1.4502310000
H -1.6216100000 0.0000000000 1.2848100000
H -2.7733580000 -0.0000000000 -0.0550830000
C -1.5448100000 -2.5453390000 0.2781570000
H -1.2236740000 -1.3095710000 -1.4502310000
H -1.3680820000 -2.5222110000 1.3564170000
H -1.0135780000 -3.4034050000 -0.1374770000
H -2.6154620000 -2.6782300000 0.1007920000
