20
0 1
Si 1.3381370000 -0.3759040000 0.4141880000
C -0.3420910000 -0.8551380000 -0.2647710000
C -1.5279530000 -0.0019580000 0.2193890000
H -0.5026570000 -1.9076060000 0.0099100000
H -0.2859080000 -0.8359270000 -1.3604660000
C 2.7058930000 -1.4907080000 -0.1999380000
H 2.5301400000 -2.5208450000 0.1266490000
H 3.6744210000 -1.1708530000 0.1917930000
H 2.7607770000 -1.4826910000 -1.2916610000
Cl 1.7785580000 1.5918470000 -0.1826470000
C -2.8775280000 -0.4581300000 -0.3505520000
H -1.3590320000 1.0458110000 -0.0529790000
H -1.5758360000 -0.0264390000 1.3151050000
C -4.0539730000 0.3943740000 0.1328300000
H -3.0475180000 -1.5070070000 -0.0784330000
H -2.8305870000 -0.4316630000 -1.4458750000
H -4.1463810000 0.3600210000 1.2228610000
H -4.9995430000 0.0459270000 -0.2912330000
H -3.9271160000 1.4425850000 -0.1547450000
H 1.3137340000 -0.3406920000 1.8936860000
