24
0 1
C 3.7338450000 0.1604190000 0.0315790000
C 3.1240250000 1.4261470000 -0.0145630000
C 1.7508370000 1.5314470000 -0.0609990000
C 2.9392630000 -0.9935680000 0.0338920000
C 1.5561350000 -0.8754590000 -0.0144080000
C 0.9397290000 0.3792860000 -0.0670570000
H 3.7592460000 2.3030610000 -0.0138190000
H 1.2741000000 2.5024860000 -0.0965790000
H 3.3852160000 -1.9772680000 0.0781750000
H 0.9560370000 -1.7765910000 0.0034790000
C -0.5214910000 0.5679450000 -0.1232510000
S -1.5045630000 -0.9339150000 -0.4142590000
P -3.5042540000 -0.2499860000 0.0138660000
O -4.4449210000 -1.2400860000 -0.5013960000
O -1.0379280000 1.6713170000 -0.0230590000
O 5.0835760000 0.1629020000 0.0746830000
C 5.7788140000 -1.0818120000 0.1157000000
H 5.5221700000 -1.6501580000 1.0151640000
H 6.8359460000 -0.8259630000 0.1388060000
H 5.5688160000 -1.6829070000 -0.7744660000
O -3.5662850000 1.2163100000 -0.5326470000
H -2.7025920000 1.6778710000 -0.3669570000
O -3.5383600000 -0.0255370000 1.6020420000
H -3.7377160000 -0.8437740000 2.0740180000
