8
0 2
Cl 2.4589710000 0.0164750000 0.0480520000
B 0.9199730000 -0.4720660000 0.6177790000
P -0.8131200000 -0.1032360000 -0.0791950000
O -1.1994510000 -1.1651950000 -1.0223810000
O -1.8290600000 0.0690400000 1.1660460000
H -2.2275060000 -0.7734570000 1.4178050000
O -0.7648620000 1.4162040000 -0.5810650000
H -1.6310820000 1.8418530000 -0.6364700000
