14
0 2
N 0.5709440000 0.0518510000 -0.0564910000
C 1.1860160000 1.3682170000 -0.0260500000
H 2.1356310000 1.3272150000 -0.5654430000
H 1.3939690000 1.7124980000 0.9962100000
H 0.5618840000 2.1067120000 -0.5266800000
C 1.4718190000 -1.0857350000 0.0507310000
H 2.2034690000 -1.0701820000 -0.7638430000
H 0.8815550000 -1.9964630000 -0.0072490000
H 2.0152430000 -1.0697910000 1.0040090000
C -0.7921680000 -0.1765640000 -0.0216560000
O -1.2613840000 -1.3172490000 -0.0238870000
C -1.6925320000 0.9675860000 0.0381520000
H -1.3907440000 1.9827520000 0.2535500000
H -2.7453480000 0.7412750000 -0.0510810000
