15
0 2
F 1.9224340000 -1.2199400000 -0.1783950000
B 2.0729940000 -0.0034150000 0.3138780000
C 1.0308740000 1.1464220000 0.1117000000
C -0.3407380000 0.7430450000 -0.4703620000
H 0.9142960000 1.6922390000 1.0562170000
C -1.1874820000 -0.1043900000 0.4869120000
H -0.1923210000 0.1901670000 -1.4047730000
H -0.8984360000 1.6494230000 -0.7349480000
C -2.5570580000 -0.4723560000 -0.0902460000
H -1.3220630000 0.4427760000 1.4280620000
H -0.6419090000 -1.0208070000 0.7384060000
H -3.1422180000 0.4229280000 -0.3226400000
H -3.1372900000 -1.0746580000 0.6138300000
H -2.4539050000 -1.0494110000 -1.0143270000
H 1.5333940000 1.8675530000 -0.5516930000
