19
0 1
B 1.3431750000 1.1096980000 0.0000000000
H 2.3770380000 1.6983340000 0.0000000000
O 0.7847640000 0.7900790000 1.2005950000
O 0.7847640000 0.7900790000 -1.2005950000
C -0.6367030000 -0.7838330000 -0.0000000000
C -0.4599400000 0.0633870000 -1.2602290000
C -0.4599400000 0.0633870000 1.2602290000
C -0.4599400000 -0.7506350000 2.5445290000
H 0.3416000000 -1.4935960000 2.5239620000
H -1.4143720000 -1.2682500000 2.6750400000
H -0.2974690000 -0.0968040000 3.4035340000
H -1.2637180000 0.8091850000 1.3065190000
H 0.1055160000 -1.5915070000 -0.0000000000
H -1.6279810000 -1.2476730000 -0.0000000000
C -0.4599400000 -0.7506350000 -2.5445290000
H -1.2637180000 0.8091850000 -1.3065190000
H 0.3416000000 -1.4935960000 -2.5239620000
H -0.2974690000 -0.0968040000 -3.4035340000
H -1.4143720000 -1.2682500000 -2.6750400000
