15
0 1
S 1.3834560000 0.0531890000 -0.7163550000
C 2.0425150000 -0.9029290000 0.7128780000
H 2.2660300000 -0.2442360000 1.5521910000
H 2.9673860000 -1.3682250000 0.3727330000
H 1.3492120000 -1.6844680000 1.0227740000
Si -0.3227370000 1.0224440000 0.1850740000
C -1.7186980000 -0.1509190000 0.6628630000
C -2.3525950000 -0.9221730000 -0.5065170000
H -2.4763120000 0.4578480000 1.1736030000
H -1.3427950000 -0.8482070000 1.4208430000
H -2.7824830000 -0.2408170000 -1.2462680000
H -3.1545520000 -1.5803170000 -0.1601570000
H -1.6137210000 -1.5403940000 -1.0225930000
H -0.7773480000 1.9776970000 -0.8521000000
H 0.1202550000 1.7620020000 1.3942720000
