19
0 1
Cl -2.9045390000 -0.8448470000 0.8981470000
C -0.5887090000 0.6983750000 -0.3427680000
S -2.1434310000 0.0391690000 -0.8684130000
C 0.5794320000 -0.1250660000 -0.2072080000
C 0.5723210000 -1.5294870000 -0.3888280000
H -0.3573230000 -2.0179310000 -0.6490850000
C 1.7245950000 -2.2644330000 -0.2374450000
H 1.6986630000 -3.3386870000 -0.3804060000
C 2.9423960000 -1.6357750000 0.1027510000
H 3.8413130000 -2.2302030000 0.2188530000
C 2.9844490000 -0.2756450000 0.2842920000
H 3.9152250000 0.2172420000 0.5440990000
C 1.8147380000 0.5136880000 0.1369420000
C 1.8463950000 1.9206440000 0.3190170000
H 2.7911300000 2.3886880000 0.5753430000
C 0.7122560000 2.6824060000 0.1793190000
H 0.7490610000 3.7556520000 0.3237280000
C -0.5133330000 2.0653820000 -0.1415130000
H -1.4132470000 2.6603930000 -0.2337760000
