17
0 1
C 2.0076260000 -0.0492490000 -0.0000010000
C 1.4864490000 1.2534430000 0.0000000000
C 0.1190920000 1.4621750000 0.0000000000
C 1.1144970000 -1.1311080000 -0.0000010000
C -0.2546780000 -0.9247560000 -0.0000010000
C -0.7800610000 0.3794390000 -0.0000000000
H 2.1618070000 2.1001360000 0.0000010000
H -0.2668830000 2.4764080000 0.0000010000
H 1.5031820000 -2.1420950000 -0.0000020000
H -0.9221240000 -1.7766970000 -0.0000020000
N -2.1479560000 0.6403570000 -0.0000000000
P -3.4130590000 -0.5330280000 0.0000020000
H -2.3823590000 1.6222320000 0.0000010000
C 3.4174550000 -0.2683690000 -0.0000010000
N 4.5602160000 -0.4451880000 -0.0000020000
H -4.2229230000 0.0099070000 -1.0329080000
H -4.2229170000 0.0099030000 1.0329190000
