11
0 1
Si 0.0000140000 0.0000210000 0.4231970000
N -1.3110230000 -1.1095700000 -0.2199150000
N -0.3053640000 1.6901050000 -0.2201880000
N 1.6163250000 -0.5806130000 -0.2202400000
F 0.0000920000 0.0000990000 1.9878150000
O 2.1225580000 0.0088600000 -1.1597570000
O 0.3333280000 2.5597630000 0.3592010000
O -1.0536430000 -1.8434290000 -1.1588690000
O -1.0697530000 1.8341800000 -1.1589900000
O -2.3834220000 -0.9915320000 0.3596750000
O 2.0508580000 -1.5679230000 0.3596550000
