9
0 1
Si 1.4473550000 0.1889230000 -0.0068070000
P -0.6668290000 -0.6734430000 -0.0962840000
N -1.6929000000 0.7047110000 0.0712280000
H -2.1417600000 0.9819780000 -0.7899500000
H -1.3711140000 1.5105500000 0.5912720000
H -0.6630570000 -1.1239240000 1.2498940000
H 1.7638140000 0.8078140000 -1.3168740000
H 2.4248040000 -0.8926310000 0.2696270000
H 1.5770840000 1.2399570000 1.0369940000
