9
0 2
F -1.7669350000 -0.7026440000 -0.2818860000
C 0.1296320000 0.7533060000 -0.2346360000
C -1.0999730000 0.2994880000 0.4643190000
H -1.8063350000 1.1242590000 0.5843360000
H -0.8577200000 -0.1359810000 1.4363490000
N 1.2884950000 0.1244750000 -0.0750650000
B 2.3810920000 -0.4724010000 0.0841600000
H 3.3974030000 -1.0210010000 0.2332320000
H 0.0661790000 1.5304320000 -0.9903910000
