22
0 1
C 0.9294010000 -1.1640740000 -0.1546110000
C -0.4430180000 -1.0213680000 0.0384130000
C 1.7557650000 -0.0536100000 -0.3472850000
C 1.1584270000 1.2125390000 -0.3470880000
C -0.2112020000 1.3616940000 -0.1596130000
C -1.0340870000 0.2450730000 0.0328150000
H -1.0672700000 -1.8963830000 0.1785690000
H 1.3645920000 -2.1591800000 -0.1596960000
H 1.7737620000 2.0929850000 -0.5068420000
H -0.6429720000 2.3583760000 -0.1784880000
P -2.8227820000 0.4749500000 0.4078050000
N -3.4911330000 -0.9784460000 -0.1911120000
H -4.3500400000 -1.2696490000 0.2500390000
H -3.4843290000 -1.1719470000 -1.1837560000
C 3.2507940000 -0.2099890000 -0.5159200000
C 4.0157550000 -0.1457180000 0.8177900000
H 3.6252920000 0.5727150000 -1.1837480000
H 3.4628100000 -1.1651070000 -1.0071400000
H 3.8482410000 0.8111060000 1.3194590000
H 5.0915870000 -0.2615500000 0.6579540000
H 3.6858600000 -0.9370310000 1.4961470000
H -3.0588750000 1.4032550000 -0.6487980000
