21
0 1
C -1.5399540000 -0.0454320000 -0.0000260000
C -1.0184790000 1.2562860000 -0.0000210000
C 0.3511250000 1.4770250000 -0.0000110000
C -0.6442280000 -1.1221500000 -0.0000180000
C 0.7265680000 -0.9146860000 -0.0000070000
C 1.2309840000 0.3912830000 -0.0000040000
H -1.0522870000 -2.1253420000 -0.0000210000
H 1.4023690000 -1.7629120000 -0.0000020000
O 2.5641830000 0.6677370000 0.0000060000
Si 3.8927240000 -0.3383170000 0.0000210000
H -1.6823730000 2.1121580000 -0.0000270000
C -3.0060690000 -0.3420940000 -0.0000400000
O -3.4092120000 -1.4896790000 0.0000230000
C -3.9864500000 0.8186330000 0.0000200000
H 0.7629900000 2.4784530000 -0.0000090000
H -3.8467900000 1.4504330000 -0.8820550000
H -3.8467120000 1.4504140000 0.8820960000
H -4.9980250000 0.4164890000 0.0000610000
H 5.0499080000 0.5718600000 0.0000310000
H 3.8960290000 -1.1963850000 -1.2055710000
H 3.8960040000 -1.1963800000 1.2056170000
