18
0 1
C -0.0873150000 -0.3607810000 0.0371720000
C 0.7473910000 0.7632160000 -0.1407140000
C 2.1412130000 0.6436690000 -0.1047000000
H 2.7603660000 1.5198780000 -0.2507920000
C 2.6996080000 -0.5999390000 0.1074480000
C 1.9156960000 -1.7347410000 0.2767000000
H 2.3921700000 -2.6947060000 0.4330580000
C 0.5315290000 -1.6072880000 0.2346350000
H -0.0771660000 -2.4952300000 0.3639120000
B -1.6570360000 -0.3008860000 0.0549160000
S -2.6076490000 0.2870920000 1.4832600000
S -2.5296270000 -0.9377260000 -1.3976190000
C 0.1710950000 2.1088030000 -0.4058410000
H -0.9351530000 2.1413240000 -0.4777960000
O 0.8270920000 3.1140320000 -0.5457700000
F 4.0412940000 -0.7259270000 0.1453110000
H -1.5659970000 0.5911620000 2.2773070000
H -3.7963090000 -0.8044050000 -0.9603540000
