15
0 1
C 0.5868220000 2.0070720000 0.0000040000
C 1.8791200000 1.4957660000 0.0000000000
C 2.0632540000 0.1183580000 -0.0000030000
C 0.9760260000 -0.7461980000 -0.0000030000
C -0.3229230000 -0.2377970000 0.0000000000
C -0.5104780000 1.1509070000 0.0000030000
H 0.4238360000 3.0766790000 0.0000060000
H 2.7320140000 2.1616420000 0.0000010000
Cl -2.1039660000 1.8663470000 0.0000070000
H 1.1330550000 -1.8148750000 -0.0000060000
Cl 3.6839680000 -0.5408360000 -0.0000070000
C -1.4839330000 -1.2089100000 -0.0000000000
F -1.0547220000 -2.4890730000 -0.0000040000
F -2.2657660000 -1.0572570000 -1.0863360000
F -2.2657630000 -1.0572620000 1.0863380000
