24
0 1
C -0.9524040000 -0.7080490000 -0.7058400000
Si 0.7568690000 -1.0870670000 0.0248680000
N 1.8086160000 0.2767280000 -0.0952130000
H 1.3642010000 -2.1681550000 -0.7898150000
H 0.5959130000 -1.6241160000 1.4091150000
N -1.7705010000 0.2822180000 0.0086890000
C 1.3975530000 1.6013940000 0.3607550000
H 1.7736910000 1.8290230000 1.3712010000
H 0.3083870000 1.6741830000 0.3721820000
H 1.7856310000 2.3740390000 -0.3162140000
C -2.8577670000 0.7807010000 -0.8267360000
H -3.5680600000 -0.0140360000 -1.1231920000
H -2.4519230000 1.2308100000 -1.7355580000
H -3.4151260000 1.5506720000 -0.2867380000
C 3.2539130000 0.1133370000 -0.1597940000
H 3.5114950000 -0.8720200000 -0.5549290000
H 3.7375140000 0.2221650000 0.8241750000
H 3.6937230000 0.8660380000 -0.8274070000
C -2.2866090000 -0.2335360000 1.2711160000
H -1.4673340000 -0.5461110000 1.9200340000
H -2.9591240000 -1.1013460000 1.1314010000
H -2.8469320000 0.5503330000 1.7865090000
H -1.4973500000 -1.6646030000 -0.8474610000
H -0.7557850000 -0.3236370000 -1.7127870000
