9
0 2
Cl 3.0536820000 0.0663800000 0.0000790000
B 1.4013770000 -0.5150720000 -0.0484140000
P -1.2301980000 -0.0452780000 -0.1139250000
O -1.6669570000 -0.8550970000 -1.2377380000
O -1.4504310000 -0.6790940000 1.3352730000
H -1.9852480000 -1.4813860000 1.2965940000
O -1.8611270000 1.4037030000 -0.0540030000
H -1.4767220000 1.9885610000 0.6104470000
O 0.3529470000 0.3328510000 -0.0382120000
