10
0 2
C 0.5254480000 0.1257600000 0.0001430000
O 0.4079300000 1.3366480000 -0.0000560000
C 1.7869050000 -0.5816690000 -0.0000290000
O -0.5327760000 -0.7272180000 0.0000500000
H 1.8197060000 -1.6621060000 -0.0000220000
H 2.6969230000 0.0005050000 -0.0001880000
C -1.8244680000 -0.1010710000 -0.0000400000
H -2.5446310000 -0.9164670000 -0.0001070000
H -1.9502020000 0.5222700000 -0.8875360000
H -1.9503340000 0.5222430000 0.8874570000
