12
0 1
C 2.4011180000 -0.3084230000 -0.0665000000
O 1.2815820000 0.5483850000 -0.2805990000
Si -0.1998450000 0.4211740000 0.3948090000
C -1.2546770000 1.7946390000 -0.2612890000
H -1.3268020000 1.7370060000 -1.3497420000
H -0.8214100000 2.7622300000 0.0070860000
H 2.2136100000 -1.3024500000 -0.4825420000
H 2.6304340000 -0.4041290000 1.0005170000
Cl -1.0539480000 -1.4267860000 -0.1142850000
H -2.2630830000 1.7374270000 0.1561050000
H 3.2586340000 0.1347990000 -0.5735830000
H -0.1077450000 0.3896710000 1.8691960000
