21
0 1
C 1.7161640000 1.7476580000 0.5256140000
C 0.4740070000 1.1575700000 0.7542720000
C 2.7711500000 1.0059700000 0.0086460000
C 2.6009850000 -0.3552890000 -0.2869190000
C 1.3454040000 -0.9407090000 -0.0534300000
C 0.2757800000 -0.2057100000 0.4673930000
H 1.2124740000 -1.9932950000 -0.2880090000
H 3.7322710000 1.4774470000 -0.1709830000
H 1.8675950000 2.7969400000 0.7560300000
H -0.3277740000 1.7540220000 1.1791760000
B -2.7827930000 0.0861180000 -0.3504470000
O -2.4170900000 1.1718450000 -1.0981060000
O -4.0948200000 -0.2751330000 -0.3310620000
N 3.6342970000 -1.0948070000 -0.8569030000
H 4.5663660000 -0.7483080000 -0.6851500000
H 3.5694550000 -2.0950890000 -0.7402820000
H -1.4709740000 1.3527990000 -1.0639530000
H -4.6388960000 0.3047440000 -0.8800120000
Si -1.4229940000 -0.9892470000 0.7239280000
H -1.3523960000 -2.4050950000 0.2787930000
H -1.7679860000 -0.9922800000 2.1698310000
