17
0 1
C -0.3227620000 -0.1867280000 0.4135460000
N 1.9831290000 -0.2603270000 -0.4334130000
F 1.9794960000 1.1119050000 -0.7650110000
F 3.2945730000 -0.4298530000 0.0704750000
C -0.9386520000 1.0648190000 0.4901570000
C -1.0674220000 -1.2864610000 -0.0214870000
C -2.2795460000 1.2129060000 0.1465540000
C -3.0159640000 0.1109310000 -0.2832820000
C -2.4073680000 -1.1396600000 -0.3685970000
H -2.9759050000 -1.9999440000 -0.7028410000
H -0.5951650000 -2.2608170000 -0.0893240000
H -2.7486160000 2.1878730000 0.2133350000
H -4.0604290000 0.2260270000 -0.5499680000
H -0.3644860000 1.9245750000 0.8163300000
C 1.1303580000 -0.3499200000 0.7779090000
H 1.3325200000 -1.3475610000 1.1712660000
H 1.4717020000 0.3983300000 1.4971110000
