17
0 1
Cl 3.2620310000 -0.5573650000 -0.1307020000
N 1.5368550000 -0.8394640000 -0.0649720000
C 0.8326560000 0.2297280000 0.1102680000
N 1.2584850000 1.4953310000 0.3231550000
H 2.2643470000 1.5764280000 0.2500150000
C 0.5102450000 2.7420980000 0.1790320000
H 1.0606870000 3.5230310000 0.7034560000
H -0.4707570000 2.6664420000 0.6455020000
H 0.3877040000 3.0274480000 -0.8689110000
C -0.6563830000 -0.0886600000 0.1879380000
Cl -1.3691450000 0.3350160000 1.7317090000
N -1.4506060000 0.5896490000 -0.9846660000
O -2.6513080000 0.6405090000 -0.8674740000
O -0.7753300000 0.9716620000 -1.9175050000
N -0.8817860000 -1.6464450000 -0.0816230000
O -1.0085580000 -1.9432020000 -1.2459840000
O -0.9124050000 -2.3572080000 0.8867310000
