11
0 1
P 0.1694130000 1.3040750000 -0.2157900000
C -0.9946740000 -0.1698960000 0.0080740000
O -0.2905900000 -1.3379900000 0.0379240000
C 1.1242400000 -1.1871540000 -0.1844520000
C 1.5813650000 0.1946280000 0.3079720000
H 1.3187350000 -1.3075010000 -1.2549310000
H 1.6081130000 -2.0027850000 0.3519230000
O -2.1845950000 -0.1392320000 0.0974420000
H 2.5239110000 0.4782650000 -0.1614280000
H 1.7110460000 0.1981760000 1.3907730000
H -0.1671070000 1.8650220000 1.0380140000
