15
0 1
O 0.4430390000 -1.3199190000 -0.1908460000
N 0.3731110000 1.3464750000 -0.1663450000
C -1.6608780000 -0.0568260000 -0.2839230000
C -1.0417730000 1.2526220000 0.2225580000
C -0.9261600000 -1.2985050000 0.2246270000
Si 1.4167400000 -0.0083730000 0.0366040000
H -0.9800120000 -1.3465210000 1.3221770000
H -1.3901210000 -2.2060700000 -0.1683540000
H -1.6464380000 -0.0601670000 -1.3783050000
H -2.7070280000 -0.1094340000 0.0376760000
H 0.7420470000 2.2858010000 -0.1289230000
H -1.1803240000 1.3157890000 1.3148760000
H -1.5869580000 2.0954270000 -0.2131690000
H 2.4930790000 -0.0118120000 -0.9748880000
H 2.0381670000 -0.0955190000 1.3880630000
