18
0 1
C 0.4076480000 0.3711170000 0.3593180000
N -1.9307190000 -0.0589870000 0.7499600000
P -2.9312780000 -0.3055410000 -0.6285530000
C 1.3616700000 1.2933150000 -0.0945000000
C 2.6393080000 0.8696870000 -0.4408240000
C 2.9885980000 -0.4771470000 -0.3522550000
C 2.0374010000 -1.3933380000 0.0916710000
C 0.7566690000 -0.9816520000 0.4483330000
H 0.0202580000 -1.6936130000 0.7963940000
H 1.0988260000 2.3443220000 -0.1696700000
H 3.3638950000 1.5978960000 -0.7885570000
H 3.9837050000 -0.8059390000 -0.6271310000
H 2.2922690000 -2.4451400000 0.1645760000
N -0.8528240000 0.8410570000 0.7736370000
H -1.0855080000 1.7486360000 0.3822220000
H -1.9218910000 -0.6742170000 -1.5522880000
H -3.0292520000 1.0238430000 -1.1484470000
H -2.4161040000 -0.0790450000 1.6355540000
