7
0 2
C -0.5530440000 -0.0000000000 0.3766870000
F -1.0692560000 1.0963330000 -0.1802220000
C 0.9100220000 -0.0000000000 0.6268270000
F -1.0692560000 -1.0963320000 -0.1802220000
F 1.6385030000 0.0000000000 -0.5724390000
H 1.1791050000 -0.8966420000 1.1874330000
H 1.1791050000 0.8966410000 1.1874340000
