16
0 1
F -2.7196120000 0.0928850000 0.5907470000
F -1.3277220000 -1.2878830000 -0.5144320000
B -1.5524580000 -0.0702650000 -0.0261370000
C -0.5397800000 1.1034590000 -0.1972350000
C 0.8986890000 0.7073930000 -0.5729420000
H -0.9627940000 1.7552180000 -0.9768680000
C 1.6289310000 -0.0595480000 0.5365170000
H 1.4709360000 1.6088300000 -0.8196520000
H 0.8834420000 0.0950980000 -1.4814620000
C 3.0670640000 -0.4301130000 0.1648810000
H 1.0702030000 -0.9723500000 0.7737700000
H 1.6319550000 0.5470420000 1.4506160000
H 3.0932360000 -1.0645820000 -0.7263000000
H 3.5601990000 -0.9746480000 0.9744010000
H 3.6636220000 0.4627950000 -0.0466180000
H -0.5519190000 1.7217500000 0.7086430000
