18
0 1
Si -1.6407340000 -0.3938210000 -0.1404270000
H -1.9115650000 -1.6800710000 -0.8205510000
F -2.2200420000 -0.5417250000 1.3687490000
C -2.5536380000 1.0148710000 -0.9489390000
C 0.2046000000 -0.1342850000 -0.0688950000
H -3.6314290000 0.8306100000 -0.9392190000
H -2.2369610000 1.1283250000 -1.9900600000
H -2.3706320000 1.9629890000 -0.4356770000
C 1.0787650000 -1.1904350000 -0.3712610000
C 2.4605430000 -1.0190820000 -0.3191980000
C 2.9941300000 0.2162650000 0.0401520000
C 2.1443030000 1.2786080000 0.3457400000
C 0.7647130000 1.1035560000 0.2895030000
H 0.1194430000 1.9426330000 0.5306900000
H 0.6754380000 -2.1584500000 -0.6517860000
H 3.1188980000 -1.8472590000 -0.5570500000
H 4.0691850000 0.3522100000 0.0820010000
H 2.5577730000 2.2410460000 0.6262890000
