17
0 1
C -1.9242440000 -1.2054300000 0.1084180000
C -0.5524910000 -1.2040870000 -0.1332980000
C 0.1588670000 -0.0000660000 -0.2641590000
C -2.6126390000 0.0000760000 0.2299540000
C -1.9241620000 1.2055120000 0.1081800000
C -0.5524100000 1.2040290000 -0.1335340000
H -2.4559910000 -2.1463310000 0.1987980000
H -0.0333370000 -2.1523270000 -0.2316060000
H -0.0331930000 2.1522160000 -0.2320260000
H -3.6808470000 0.0001310000 0.4163200000
H -2.4558460000 2.1464670000 0.1983760000
B 2.7887880000 0.0003180000 1.3205200000
Si 2.0295280000 -0.0001550000 -0.5436830000
H 2.3977250000 -1.2058620000 -1.3283210000
H 2.3977720000 1.2051410000 -1.3289320000
H 2.9744920000 -1.0185060000 1.9117360000
H 2.9743630000 1.0194490000 1.9112500000
