16
0 1
P 1.5357730000 0.0000000000 -0.1310930000
C -0.3565420000 0.0000000000 0.0072040000
C -0.8424220000 -0.0000000000 1.4649550000
H -0.4913560000 0.8837470000 2.0040860000
H -0.4913560000 -0.8837470000 2.0040860000
C -0.8701020000 -1.2590520000 -0.7167260000
H -1.9388480000 -0.0000000000 1.4999480000
H -1.9654750000 -1.2759650000 -0.7092960000
H -0.5420110000 -1.2866830000 -1.7594940000
H -0.5216580000 -2.1741150000 -0.2286510000
C -0.8701020000 1.2590520000 -0.7167260000
H -0.5216580000 2.1741150000 -0.2286510000
H -1.9654750000 1.2759650000 -0.7092960000
H -0.5420110000 1.2866830000 -1.7594940000
H 1.7891290000 -1.0334800000 0.8104610000
H 1.7891280000 1.0334800000 0.8104610000
