20
0 1
Cl 1.7207390000 2.0711110000 -0.1571710000
S 0.4406450000 -0.9493010000 0.4867480000
O 0.5313970000 -2.3177280000 -0.0112050000
O 0.7874110000 -0.6223980000 1.8597800000
P 1.7545840000 0.1370800000 -0.9776060000
C -1.2095710000 -0.3365230000 0.1694330000
C -1.7159960000 0.6950110000 0.9591660000
H -1.1168330000 1.1003050000 1.7638150000
C -2.9991250000 1.1683930000 0.7000600000
H -3.4097150000 1.9668600000 1.3066890000
C -3.7543990000 0.6134070000 -0.3323140000
H -4.7533660000 0.9857320000 -0.5286280000
C -3.2364100000 -0.4221030000 -1.1098290000
H -3.8318350000 -0.8577290000 -1.9034850000
C -1.9550730000 -0.9058530000 -0.8626060000
H -1.5411300000 -1.7224010000 -1.4401890000
C 3.3092260000 -0.5001490000 -0.2186950000
H 3.3699830000 -1.5682420000 -0.4428100000
H 3.3275340000 -0.3452510000 0.8604870000
H 4.1513590000 0.0123680000 -0.6877470000
