14
0 2
Si 0.8539200000 0.1621010000 0.5620530000
C -0.8026940000 -0.6464850000 -0.1403510000
Cl 2.3683900000 -1.2240400000 0.2684540000
Cl 1.2458650000 1.8239660000 -0.6570000000
N -1.9981020000 -0.0760530000 0.1640790000
C -2.1425150000 1.1404860000 0.9444020000
O -0.6609730000 -1.6438370000 -0.8229530000
H -1.1996090000 1.3972410000 1.4311960000
H -2.8929200000 0.9938840000 1.7268480000
H -2.4481940000 1.9829820000 0.3151900000
C -3.2212540000 -0.6331280000 -0.4102230000
H -3.9354390000 -0.8655460000 0.3851910000
H -2.9665000000 -1.5416700000 -0.9506730000
H -3.6812820000 0.0827860000 -1.0991120000
