20
0 1
C 0.8727270000 0.2650100000 0.0002210000
C 0.2954600000 -1.0083840000 -0.0052880000
C -1.0935660000 -1.1380440000 -0.0096270000
C 0.0458050000 1.3968120000 -0.0043730000
C -1.3323730000 1.2565000000 -0.0126380000
C -1.9186560000 -0.0157420000 -0.0044600000
H 0.5112340000 2.3749180000 -0.0072010000
H -1.9647550000 2.1357750000 -0.0265850000
S -3.7062870000 -0.2008950000 -0.0700690000
H 0.9079430000 -1.8996120000 -0.0076980000
H -1.5374710000 -2.1260840000 -0.0165280000
O 2.2103010000 0.5099570000 0.0054680000
C 3.1215720000 -0.5928890000 0.0031260000
C 4.5260950000 -0.0213250000 0.0083230000
H 2.9527520000 -1.2098320000 -0.8878880000
H 2.9490360000 -1.2167150000 0.8886640000
H 4.6911350000 0.5993000000 -0.8747210000
H 5.2612290000 -0.8301250000 0.0069290000
H 4.6873040000 0.5927890000 0.8966280000
H -3.9426130000 -0.1373790000 1.2540550000
