14
0 1
F 2.5485010000 0.0389840000 1.0988840000
S 2.0848580000 0.1029810000 -0.4960690000
O 0.5169470000 0.5678830000 -0.3469330000
C -0.4760230000 -0.4443970000 -0.1501370000
O -0.2177360000 -1.6152980000 -0.1689400000
N -1.6810670000 0.1373700000 0.0391890000
C -1.9317130000 1.5752240000 0.0659110000
H -1.0001810000 2.1229750000 -0.0206430000
H -2.4199770000 1.8452680000 1.0076380000
H -2.5933960000 1.8580130000 -0.7598110000
C -2.8416740000 -0.7264590000 0.2260400000
H -3.3057460000 -0.5288050000 1.1975000000
H -2.5230670000 -1.7642940000 0.1832970000
H -3.5816300000 -0.5401780000 -0.5590620000
