17
0 1
C 2.0039690000 0.9287220000 -0.0000000000
C 0.7841430000 -0.0174510000 0.0000000000
C -0.4544560000 0.8931940000 -0.0000000000
C 0.8182450000 -0.8959200000 -1.2617970000
H -0.4776970000 1.5232620000 -0.8887930000
H -0.4776980000 1.5232630000 0.8887910000
Cl -2.0478700000 0.0060780000 -0.0000000000
H 2.0129820000 1.5708550000 -0.8859690000
H 2.9302350000 0.3477920000 0.0000000000
H 0.8029730000 -0.2847650000 -2.1696750000
H -0.0371120000 -1.5735170000 -1.2966110000
H 1.7301940000 -1.4992760000 -1.2789170000
C 0.8182450000 -0.8959190000 1.2617980000
H 0.8029720000 -0.2847630000 2.1696750000
H 1.7301930000 -1.4992750000 1.2789190000
H -0.0371130000 -1.5735160000 1.2966120000
H 2.0129820000 1.5708560000 0.8859680000
