12
0 1
Si 0.9070700000 -0.6188370000 0.2718370000
B -1.0012980000 0.0538880000 0.0207080000
O -2.0691880000 -0.7290100000 -0.3346560000
O -1.2340820000 1.3797860000 0.2304560000
C 2.1931000000 0.5853700000 -0.4002180000
H 2.0726010000 0.7238690000 -1.4779260000
H 3.2093900000 0.2291290000 -0.2141860000
H 2.0788760000 1.5623710000 0.0763910000
H -2.1635170000 1.6116680000 0.1021790000
H -1.8389590000 -1.6493560000 -0.4844120000
H 1.0570840000 -1.9445090000 -0.3957450000
H 1.1595970000 -0.8573110000 1.7193520000
