7
0 2
Si 0.0967040000 0.0000000000 -0.4125090000
C -1.6892020000 0.0000000000 0.1546220000
F 0.8282590000 -1.2855200000 0.2234020000
F 0.8282590000 1.2855200000 0.2234020000
H -1.7123710000 -0.0000040000 1.2496150000
H -2.2074680000 -0.8886650000 -0.2117340000
H -2.2074660000 0.8886690000 -0.2117270000
