21
0 1
C -1.2236160000 -0.0740480000 -0.0007210000
O 0.1782480000 -0.3912960000 -0.1362690000
Si 1.5482480000 0.5155100000 -0.0000300000
C 2.9872220000 -0.6726280000 -0.0196090000
C -1.5571760000 0.0612460000 1.4902680000
H -2.6256040000 0.2449120000 1.6339250000
H -1.0062960000 0.8906870000 1.9406710000
H -1.2894780000 -0.8560320000 2.0197150000
C -1.5536490000 1.2194780000 -0.7561410000
H -1.0275410000 2.0763690000 -0.3251140000
H -2.6256400000 1.4287320000 -0.7077410000
H -1.2675840000 1.1335790000 -1.8070910000
H 2.9353630000 -1.3654880000 0.8241320000
H 3.9333630000 -0.1261420000 0.0438990000
H 2.9943380000 -1.2591030000 -0.9420610000
C -1.9686780000 -1.2615480000 -0.6160750000
H -3.0510640000 -1.1286570000 -0.5367470000
H -1.6904250000 -2.1841530000 -0.1021760000
H -1.7050760000 -1.3662890000 -1.6709330000
H 1.5500180000 1.3097020000 1.2579450000
H 1.6695570000 1.4801110000 -1.1241830000
