10
0 1
N 0.0854830000 -0.4060790000 0.2778360000
B -1.2677960000 0.1719360000 0.0129410000
N 1.3025700000 0.2433130000 0.0003220000
F 0.2115440000 -1.7548780000 0.0693760000
O 2.2687950000 -0.4316150000 -0.2324650000
O 1.2442690000 1.4698030000 0.0840050000
O -1.4525430000 1.5026680000 -0.0546630000
O -2.2538710000 -0.7402230000 -0.1016760000
H -3.1130410000 -0.3251870000 -0.2297470000
H -0.6214400000 1.9937040000 0.0319390000
