12
0 2
Cl -2.1024490000 -0.3583280000 0.0000010000
B -0.9931080000 0.9918560000 -0.0000020000
C 0.5587670000 0.9394400000 -0.0000010000
C 1.2529950000 -0.4383230000 -0.0000010000
H 0.8913490000 1.5360130000 -0.8637420000
C 2.7804490000 -0.3347750000 0.0000010000
H 0.9221480000 -1.0084460000 -0.8739510000
H 0.9221470000 -1.0084470000 0.8739490000
H 3.1411020000 0.2019760000 -0.8830440000
H 3.2447070000 -1.3248290000 0.0000010000
H 0.8913470000 1.5360120000 0.8637420000
H 3.1411010000 0.2019760000 0.8830460000
