12
0 2
Cl 2.7694550000 -0.0000010000 0.0104020000
N -0.1907300000 -0.0000220000 -0.0370340000
C -2.2625420000 1.3025760000 0.0208340000
C -1.5263620000 0.0000000000 -0.0826180000
C -2.2625720000 -1.3025590000 0.0208350000
B 1.0630890000 -0.0000010000 -0.0007880000
H -1.6770840000 2.1183860000 -0.4085910000
H -2.4727760000 1.5674360000 1.0692230000
H -3.2261960000 1.2530190000 -0.4946160000
H -1.6771370000 -2.1183810000 -0.4085990000
H -3.2262300000 -1.2529770000 -0.4946070000
H -2.4728020000 -1.5674190000 1.0692240000
