19
0 1
B -2.3728670000 -0.4661940000 -0.4117400000
B -3.3193630000 0.8085070000 -0.8274060000
C -1.5335900000 -0.6307580000 0.9228690000
C -0.1196820000 -0.2833800000 0.4758890000
C 0.7313200000 -1.2639300000 -0.0510630000
C 0.3485860000 1.0347430000 0.5443360000
C 2.0177370000 -0.9412210000 -0.4727830000
C 2.4755260000 0.3724560000 -0.3870900000
C 1.6353590000 1.3597140000 0.1225010000
H 0.3824690000 -2.2890110000 -0.1209930000
H 2.6645250000 -1.7172550000 -0.8670130000
H 3.4778140000 0.6239000000 -0.7147090000
H 1.9815160000 2.3849030000 0.1937370000
H -0.2981120000 1.8100140000 0.9426560000
H -1.5596970000 -1.6588120000 1.2944870000
H -1.8398300000 0.0347100000 1.7330240000
H -2.9117330000 1.8005780000 -1.3557980000
H -4.5010490000 0.7747050000 -0.6297850000
H -2.2662950000 -1.3610390000 -1.2078240000
