12
0 1
O 0.6609350000 -0.8616830000 -0.7047470000
S 2.2015560000 -1.0912580000 -0.0464980000
C 2.7621390000 0.5874330000 -0.1250600000
C -0.3000140000 -0.3729440000 0.1332800000
O -1.4229700000 -0.3293310000 -0.6376380000
O -0.1867330000 -0.0618100000 1.2697510000
O 2.1814500000 1.5513740000 -0.4663330000
F 4.0445980000 0.5763710000 0.3001790000
C -2.5956270000 0.1408190000 -0.0628560000
F -2.9777170000 -0.6202230000 0.9606720000
F -3.5168990000 0.0840760000 -1.0149720000
F -2.4705750000 1.3975420000 0.3522890000
