8
0 1
F 0.8738230000 1.4074980000 0.0000080000
F 1.9783460000 -0.5841670000 -0.0000010000
S -0.7211400000 -0.8352800000 -0.0000050000
B 0.8300880000 0.0789550000 0.0000020000
C -1.9465590000 0.5336820000 -0.0000010000
H -2.9294400000 0.0645640000 -0.0000030000
H -1.8364630000 1.1465370000 -0.8922500000
H -1.8364640000 1.1465310000 0.8922530000
