17
0 1
P -2.4018370000 -0.0943020000 -0.3581430000
Si -0.3628380000 -0.0609400000 0.6681640000
C 0.8055110000 1.3970180000 0.3078880000
C 0.7961680000 -1.4051270000 -0.0147700000
C 2.1509820000 -0.6703080000 -0.1751720000
H 0.4350650000 -1.7484770000 -0.9905170000
H 0.8714130000 -2.2881940000 0.6235010000
C 1.8802740000 0.7809560000 -0.6218760000
H 2.8102900000 -1.1854810000 -0.8805830000
H 2.6728810000 -0.6542140000 0.7891200000
H 2.8008220000 1.3727760000 -0.6256090000
H 1.5083540000 0.7725870000 -1.6535750000
H 1.2615680000 1.7259130000 1.2486200000
H 0.3190880000 2.2687300000 -0.1342360000
H -1.9228150000 0.4285950000 -1.5893990000
H -2.8046710000 1.1755380000 0.1345900000
H -0.6423210000 -0.2153220000 2.1195190000
