16
0 1
C 2.6994270000 0.0000160000 0.2772360000
C 2.0160170000 1.2042470000 0.1192540000
C 0.6581140000 1.2101800000 -0.1900780000
C 2.0160410000 -1.2042290000 0.1192680000
C 0.6581380000 -1.2101930000 -0.1900640000
C -0.0187460000 -0.0000140000 -0.3420580000
H 3.7564470000 0.0000280000 0.5159820000
H 2.5406190000 2.1460900000 0.2346800000
H 0.1178030000 2.1395320000 -0.3258520000
H 2.5406610000 -2.1460610000 0.2347060000
H 0.1178430000 -2.1395560000 -0.3258260000
O -1.3517920000 -0.0000310000 -0.6889500000
Si -2.6625080000 0.0000080000 0.3279660000
H -3.8421550000 -0.0000180000 -0.5558120000
H -2.6578510000 1.2043220000 1.1903830000
H -2.6578580000 -1.2042470000 1.1904650000
