10
0 1
Si 2.5520730000 -0.8583110000 -0.0000020000
Si 1.1438310000 1.0347930000 0.0001970000
H 3.9635610000 -0.4034050000 0.0008670000
H 2.3026900000 -1.6757200000 -1.2096630000
H 2.3015570000 -1.6768300000 1.2086740000
N -0.5086140000 0.5335210000 -0.0007210000
H 1.3579830000 1.8672600000 -1.2044470000
H 1.3570120000 1.8663360000 1.2056640000
C -1.6245640000 0.1158770000 -0.0002410000
S -3.1073610000 -0.4298940000 0.0001660000
