12
0 1
C 1.3918520000 -0.0146920000 0.6009590000
N -1.2833310000 -0.1343030000 -0.2502470000
O -1.2744060000 1.1787690000 -0.7814610000
O -1.5189300000 -0.0301820000 1.1586490000
C 2.4505660000 0.6594620000 0.1475430000
H 3.1107650000 1.2075030000 0.8137300000
H 2.7028880000 0.6782180000 -0.9089750000
H -2.4809290000 -0.0895130000 1.2169910000
H -0.5818940000 1.6637260000 -0.2988200000
P 0.2909320000 -0.9027810000 -0.5665300000
H 1.1546400000 -0.0177190000 1.6608190000
H 0.0060590000 -2.0176880000 0.2574220000
