24
0 1
S 1.6301900000 0.5826060000 -1.0440260000
S 0.8351820000 -1.2813820000 -0.5901980000
C 3.0088310000 0.8475240000 0.1792680000
S -0.6925390000 -1.0819640000 0.8800010000
S -2.5410910000 -1.0666510000 -0.0624450000
C -3.0306200000 0.7186220000 -0.2469340000
C 4.1253340000 -0.1827970000 0.0235490000
H 3.7716700000 -1.1819290000 0.2894380000
H 4.9583290000 0.0661810000 0.6888760000
H 4.4997200000 -0.2131310000 -1.0011790000
C -3.1062540000 1.4461380000 1.0935000000
H -2.1146570000 1.5346970000 1.5440520000
H -3.7572400000 0.9231290000 1.7963490000
H -3.4979350000 2.4577510000 0.9463650000
C 2.5093900000 0.9744320000 1.6163740000
H 3.3669320000 1.8252600000 -0.1662870000
H 1.7269940000 1.7299470000 1.7059550000
H 3.3387030000 1.2559190000 2.2733000000
H 2.1096030000 0.0234740000 1.9766980000
C -2.1926980000 1.4609450000 -1.2848970000
H -4.0464520000 0.5757630000 -0.6371120000
H -1.1656280000 1.5927630000 -0.9372540000
H -2.6175320000 2.4545440000 -1.4624460000
H -2.1642790000 0.9246980000 -2.2352340000
