14
0 1
F 2.4248290000 -1.2329980000 -0.0000000000
N 1.4992680000 -0.2466600000 -0.0000000000
N 1.8966170000 1.0281360000 0.0000010000
N 0.8245030000 1.7598770000 -0.0000010000
C 0.1502630000 -0.4141620000 0.0000000000
C -0.2769010000 0.9282370000 0.0000000000
C -1.6490800000 1.2220130000 0.0000000000
H -1.9876430000 2.2504650000 -0.0000000000
C -2.5280520000 0.1566320000 0.0000000000
H -3.5951870000 0.3431620000 0.0000000000
C -2.0715790000 -1.1846950000 0.0000000000
H -2.8022400000 -1.9849600000 0.0000000000
C -0.7262010000 -1.5038870000 0.0000000000
H -0.3717950000 -2.5259790000 0.0000000000
