22
0 1
C -0.9983550000 2.3142660000 -0.5720940000
H -1.8569820000 2.9878570000 -0.5732190000
H -0.5440040000 2.3440670000 -1.5683700000
H -0.2555840000 2.7030890000 0.1286850000
F 1.6011510000 -1.5095820000 -1.1830540000
O 1.8715910000 1.5793000000 1.0490050000
P 1.1435830000 0.0679180000 -1.0277510000
C 2.8643080000 -0.5998250000 1.2662500000
H 3.2945800000 -0.2021280000 2.1859520000
H 3.6574750000 -0.9179270000 0.5837700000
H 2.2608320000 -1.4860580000 1.4803610000
C -0.5393250000 -0.1864430000 -0.3256280000
C 2.0133300000 0.4611660000 0.6126370000
C -1.4176330000 0.9107450000 -0.2031400000
C -0.9636340000 -1.4744050000 0.0221270000
H -0.2867130000 -2.3105280000 -0.1009880000
C -3.1226320000 -0.6115400000 0.6387490000
H -4.1290080000 -0.7665530000 1.0111900000
C -2.7039140000 0.6688720000 0.2864680000
H -3.3901590000 1.5033700000 0.3865770000
C -2.2516370000 -1.6881560000 0.5031340000
H -2.5703160000 -2.6902000000 0.7667250000
