16
0 1
N -1.7777020000 0.4618860000 -0.0001680000
O -2.9144630000 0.1427390000 -0.0001630000
S -0.5658180000 -0.9272070000 0.0000530000
C 0.9897580000 0.1061440000 0.0000520000
C 2.1369610000 -0.9154670000 -0.0000090000
H 2.1069300000 -1.5543290000 0.8859600000
H 3.0938450000 -0.3834430000 -0.0000180000
H 2.1068840000 -1.5542760000 -0.8860140000
C 1.0347960000 0.9713150000 1.2664250000
H 1.0045530000 0.3545270000 2.1672720000
H 0.1963180000 1.6685660000 1.2981440000
H 1.9630360000 1.5527200000 1.2802300000
C 1.0347320000 0.9713950000 -1.2662690000
H 1.0044390000 0.3546650000 -2.1671530000
H 1.9629720000 1.5528000000 -1.2800870000
H 0.1962520000 1.6686490000 -1.2978980000
