9
0 1
S -0.7891230000 -1.1047890000 -0.1940290000
N -1.9686140000 0.3150980000 -0.0045180000
O -1.6096190000 1.4191880000 -0.2993990000
O -3.0359140000 -0.0741320000 0.4122770000
O 0.5328320000 -0.3119970000 -0.8324970000
C 1.5223010000 0.1062080000 0.0465350000
F 2.4109530000 0.7671140000 -0.6785690000
F 2.1188330000 -0.9383820000 0.6320960000
F 1.0451100000 0.9011810000 1.0035660000
