14
0 1
B -2.5389420000 0.7077610000 -0.0686500000
C 0.6656980000 0.1293920000 -0.5250920000
C 1.9887550000 -0.4783090000 -0.0904820000
C 1.6045150000 0.8845290000 0.4050370000
H 1.3251490000 0.9863430000 1.4482020000
H 2.1287020000 1.7436610000 0.0029170000
H 2.7765350000 -0.5503850000 -0.8314230000
H 1.9689720000 -1.3017680000 0.6148710000
Si -0.9643680000 -0.5385610000 0.0976550000
H 0.6506710000 0.5004020000 -1.5469770000
H -0.7641200000 -0.9856980000 1.5036310000
H -1.3618200000 -1.7480500000 -0.6860990000
H -3.5225970000 0.5330930000 0.5835070000
H -2.5594400000 1.6097750000 -0.8493280000
