23
0 1
C 0.2253820000 -1.2522720000 -0.3049480000
O 0.3998490000 -1.9977880000 -1.2237130000
C 1.0902810000 0.0000120000 0.0000030000
O -0.7092050000 -1.3621200000 0.6428180000
Cl 2.1174690000 0.3899120000 -1.4151970000
Cl 2.1176150000 -0.3897870000 1.4151230000
C -1.5783420000 -2.5309420000 0.5781820000
C -2.7668890000 -2.2850680000 -0.3331880000
H -1.8831590000 -2.6853670000 1.6123820000
H -0.9831940000 -3.3796710000 0.2406370000
H -3.3371730000 -1.4141530000 -0.0034430000
H -3.4282660000 -3.1556870000 -0.3111410000
H -2.4416250000 -2.1293020000 -1.3627790000
C 0.2252820000 1.2522100000 0.3050180000
O 0.3997860000 1.9977820000 1.2237320000
O -0.7092860000 1.3620540000 -0.6427680000
C -1.5784280000 2.5308720000 -0.5781510000
C -2.7669950000 2.2849930000 0.3331920000
H -1.8832220000 2.6852980000 -1.6123580000
H -0.9832910000 3.3796040000 -0.2405920000
H -3.3372680000 1.4140770000 0.0034320000
H -3.4283740000 3.1556110000 0.3111300000
H -2.4417540000 2.1292280000 1.3627900000
