8
0 1
Si 1.3408830000 0.0000000000 -0.0396420000
C -0.5251740000 0.0000000000 0.3969390000
F -1.1239000000 1.1127030000 -0.1588730000
F -1.1239000000 -1.1127030000 -0.1588730000
H -0.7713970000 0.0000000000 1.4634570000
H 1.4610870000 0.0000000000 -1.5109360000
H 1.9595960000 -1.2114250000 0.5402720000
H 1.9595970000 1.2114240000 0.5402720000
