15
0 1
C -0.3586470000 -0.3810710000 0.0000000000
C 0.5082760000 -1.4685900000 0.0000000000
C 1.8821270000 -1.2474120000 0.0000000000
C 2.3714130000 0.0556140000 -0.0000000000
C 1.4851990000 1.1287460000 -0.0000000000
C 0.0980870000 0.9426470000 -0.0000000000
Cl -2.0915310000 -0.7036640000 0.0000000000
H 2.5612730000 -2.0919110000 0.0000000000
H 3.4397680000 0.2378860000 -0.0000000000
H 0.1054510000 -2.4732630000 0.0000000000
H 1.8705170000 2.1428230000 -0.0000000000
C -0.8436470000 2.1174050000 -0.0000000000
H -0.2871560000 3.0557980000 -0.0000000000
H -1.4953400000 2.1034660000 0.8781720000
H -1.4953400000 2.1034660000 -0.8781720000
