12
0 1
C 2.0752720000 -0.3894270000 0.0696630000
O 1.0669820000 0.5282340000 -0.3531540000
H 2.9721400000 -0.1397400000 -0.4943200000
H 1.7756750000 -1.4182290000 -0.1464700000
H 2.2744030000 -0.2831980000 1.1428530000
C -0.1120470000 0.4726950000 0.3390250000
C -0.9773230000 1.6508550000 -0.0373540000
H -0.4572880000 2.5715130000 0.2410350000
H -1.9356840000 1.6072900000 0.4791720000
H -1.1484900000 1.6546520000 -1.1143190000
Cl -1.0574500000 -1.1173920000 -0.0545500000
H 0.0446240000 0.3727620000 1.4166320000
