8
0 1
F -1.9977230000 0.8869370000 0.0000140000
S -1.1444460000 -0.5812040000 -0.0000190000
N 0.4296010000 -0.4275550000 -0.0000030000
N 1.2226710000 0.5217410000 0.0000080000
C 2.6277230000 0.0977760000 0.0000160000
H 3.1082790000 0.5302730000 -0.8816050000
H 2.7418580000 -0.9896680000 0.0000150000
H 3.1082660000 0.5302700000 0.8816460000
