13
0 2
B 0.8024820000 1.9648980000 -0.0780450000
B 0.0271550000 0.5142460000 -0.0026400000
O -1.3401420000 0.5567660000 0.0033810000
O 0.6501720000 -0.7099440000 -0.0000500000
C -2.1153140000 -0.6423950000 0.0055450000
H -3.1650960000 -0.3484780000 -0.0090670000
H -1.9163680000 -1.2379140000 0.9009770000
H -1.8958140000 -1.2547300000 -0.8735420000
C 2.0675250000 -0.8128720000 0.0053590000
H 2.3312760000 -1.8430330000 -0.2371460000
H 2.4758900000 -0.5699140000 0.9920990000
H 2.5220350000 -0.1527010000 -0.7438240000
H 1.3063820000 2.9680760000 0.2818590000
