11
0 1
Si 0.2592880000 0.2556760000 0.0000000000
C 0.2592880000 -0.7771550000 1.5522980000
F -1.0812960000 1.1691200000 0.0000000000
H -0.5965100000 -1.4579600000 1.5771030000
H 0.2175440000 -0.1470590000 2.4448540000
C 0.2592880000 -0.7771550000 -1.5522980000
H -0.5965100000 -1.4579600000 -1.5771030000
H 1.1714170000 -1.3799830000 -1.6103310000
H 0.2175440000 -0.1470590000 -2.4448540000
H 1.1714170000 -1.3799830000 1.6103310000
H 1.4052790000 1.1943150000 0.0000000000
