11
0 2
Si -1.8585790000 -0.3110020000 -0.0849210000
C -0.0407250000 0.3034200000 -0.0043730000
H -2.0465590000 -1.6723880000 0.4913690000
H -2.7422570000 0.6776690000 0.5689080000
O 0.1758990000 1.5067440000 0.0083960000
N 0.9466160000 -0.6417500000 -0.0201280000
C 2.3628140000 -0.3022060000 0.0182970000
H 0.6807490000 -1.6118020000 0.0443610000
H 2.4470030000 0.7711280000 -0.1421920000
H 2.9054950000 -0.8301950000 -0.7697610000
H 2.8096370000 -0.5493800000 0.9863970000
