16
0 1
B 0.9712950000 0.0858080000 0.0022980000
C 1.2157590000 1.6354530000 0.0542220000
H 1.1996820000 1.9009790000 1.1253970000
H 0.4336280000 2.2452210000 -0.4070540000
H 2.1939270000 1.9523190000 -0.3232210000
Si -0.9079150000 -0.7022490000 0.1034440000
C 2.1928890000 -0.8942810000 -0.1018300000
H 3.1229560000 -0.4907710000 0.3138090000
H 2.3745120000 -1.0159090000 -1.1835850000
H 2.0280620000 -1.9024390000 0.2878720000
C -2.3293690000 0.5167300000 -0.1546290000
H -2.2938040000 1.3242400000 0.5822900000
H -3.2982250000 0.0194690000 -0.0592970000
H -2.2836540000 0.9704730000 -1.1489320000
H -1.0579630000 -1.3344190000 1.4477700000
H -1.0404640000 -1.8141240000 -0.8813220000
