16
0 1
S -1.3920060000 -0.7943340000 -0.5977540000
N -2.0950810000 0.9084160000 -0.3350910000
O -1.7101360000 1.5079310000 0.6042450000
C -0.2478290000 -0.9727480000 0.8039490000
C 1.2389940000 -0.8759170000 0.4366150000
H -0.4805200000 -1.9305070000 1.2733520000
C 1.6872300000 0.5136790000 -0.0274470000
H 1.4747790000 -1.6174710000 -0.3347920000
H 1.8146600000 -1.1638860000 1.3254180000
C 3.1723860000 0.5653610000 -0.3952800000
H 1.4773340000 1.2417150000 0.7641810000
H 1.0864920000 0.8167380000 -0.8917480000
H 3.8032250000 0.2936930000 0.4568880000
H 3.4651650000 1.5676840000 -0.7180530000
H 3.4022960000 -0.1264130000 -1.2114870000
H -0.5293640000 -0.1768100000 1.5049620000
