16
0 1
C -1.1651760000 1.4202800000 -0.3715950000
Si 0.6675020000 1.6654170000 0.0649850000
S 1.8000260000 -0.2712620000 -0.1051990000
H 0.8440850000 2.1381000000 1.4464460000
H 1.3048630000 2.5424350000 -0.9325250000
O 1.1164880000 -1.0903210000 -1.1091600000
O 1.6340480000 -0.9811020000 1.3267380000
O 3.2022770000 -0.0017540000 -0.2518460000
S -1.8792020000 -0.1675910000 0.0996370000
O -1.1051940000 -0.6522230000 1.2344290000
O -3.2983670000 -0.0462830000 0.1996740000
O -1.5750250000 -1.0776450000 -1.1625170000
H 0.6794500000 -1.1657990000 1.4649620000
H -0.6004790000 -1.2586910000 -1.2111310000
H -1.3618800000 1.5564450000 -1.4357270000
H -1.7470120000 2.1662660000 0.1782080000
