17
0 1
C -0.9879070000 -0.3995270000 0.2862210000
P 2.2352480000 0.1428590000 -0.7403860000
F 1.9963850000 1.5977470000 -0.0246800000
F 3.5931350000 -0.3007960000 0.0507190000
C -1.3545870000 0.9319840000 0.5497040000
C -1.9504620000 -1.2563770000 -0.2715430000
C -2.6408080000 1.3856610000 0.2724460000
C -3.5844140000 0.5188380000 -0.2769930000
C -3.2378850000 -0.8023820000 -0.5497020000
H -3.9691470000 -1.4795480000 -0.9768130000
H -1.6954490000 -2.2889710000 -0.4865420000
H -2.9069050000 2.4153070000 0.4836560000
H -4.5864390000 0.8729320000 -0.4919510000
H -0.6302900000 1.6212200000 0.9711400000
Si 0.7474810000 -1.0027410000 0.6394290000
H 0.8525990000 -2.4476940000 0.3256050000
H 1.1728810000 -0.7395020000 2.0335360000
