18
0 1
C -1.5803410000 -1.5412090000 -0.0000010000
C -2.9170820000 -1.1818190000 -0.0000010000
C -3.2978730000 0.1685480000 0.0000020000
C -2.3291580000 1.1558050000 0.0000050000
C -0.9626820000 0.8238020000 0.0000060000
C -0.5954980000 -0.5420090000 0.0000030000
N 0.7472030000 -0.8600350000 0.0000050000
C 1.7922200000 0.0317440000 0.0000180000
H -4.3478600000 0.4343240000 0.0000020000
H 1.0181200000 -1.8357200000 -0.0000000000
H -3.6760540000 -1.9554430000 -0.0000030000
H -2.6117540000 2.2028710000 0.0000050000
S 3.3757730000 -0.5008340000 -0.0000150000
C 0.0957380000 1.7939840000 0.0000030000
C 1.3999370000 1.4209130000 0.0000020000
H -0.1684110000 2.8465250000 -0.0000010000
H 2.1995530000 2.1480920000 -0.0000070000
H -1.2879400000 -2.5856200000 -0.0000040000
