12
0 1
C 0.7667210000 0.8447960000 0.0809970000
C -0.5270770000 0.2147640000 0.4529500000
C -1.5978660000 0.2112600000 -0.3404870000
Cl 2.1051850000 -0.4093690000 -0.0885580000
H 1.1357450000 1.5276490000 0.8449640000
H 0.7174540000 1.3558110000 -0.8783130000
C -2.9264710000 -0.3891210000 0.0032060000
H -0.5704000000 -0.2562570000 1.4320340000
H -1.5204170000 0.6777530000 -1.3219620000
H -2.9207520000 -0.8394230000 0.9980160000
H -3.2022330000 -1.1626520000 -0.7218780000
H -3.7193850000 0.3661910000 -0.0273770000
