20
0 1
C 0.6158120000 0.0001810000 -0.3645520000
C -0.0961290000 -1.2700910000 0.1440270000
C -1.5932840000 -1.2613110000 -0.2033050000
C -2.2880960000 0.0067460000 0.3109940000
C -1.5852150000 1.2733880000 -0.1957880000
C -0.0871670000 1.2675290000 0.1515530000
P 2.4541630000 -0.1037590000 0.0091060000
H 0.0184560000 -1.3328120000 1.2345310000
H 0.3818960000 -2.1629300000 -0.2710130000
H -2.0748770000 -2.1534270000 0.2100230000
H -1.7090950000 -1.3210680000 -1.2931320000
H -2.2785240000 0.0034290000 1.4087190000
H -3.3403320000 0.0103320000 0.0091050000
H -2.0601630000 2.1661660000 0.2240360000
H -1.7028330000 1.3413790000 -1.2850190000
H 0.3978640000 2.1590380000 -0.2575170000
H 0.0324550000 1.3205460000 1.2412880000
H 0.5612390000 -0.0034210000 -1.4623280000
H 2.3742100000 0.2011940000 1.3953350000
H 2.7917400000 1.2293140000 -0.3481880000
