14
0 1
Si 1.0963380000 1.1012210000 -1.1776840000
Si -0.9741490000 1.6504310000 -0.1750060000
C -1.9741370000 0.0474750000 0.0915420000
H -1.7646380000 2.5196880000 -1.0729120000
H -0.7576880000 2.3321990000 1.1234100000
S -2.4419640000 -0.8306140000 -1.2137330000
S -2.2929720000 -0.3556850000 1.7574960000
C 1.9985900000 -0.1422050000 -0.0583040000
H 1.9348770000 2.3112110000 -1.2988450000
H 0.8614390000 0.5058240000 -2.5152160000
S 2.8074210000 0.3999770000 1.2611780000
S 1.9043320000 -1.8582610000 -0.3982430000
H -2.9491410000 -1.5142570000 1.5330650000
H 1.1887260000 -1.7960790000 -1.5384520000
