14
0 1
Si 2.8158960000 0.4285120000 -0.5389060000
Si 1.1367760000 -0.8205090000 0.5467800000
C -0.5186880000 0.1666840000 0.4356370000
H 1.4336030000 -0.9686840000 1.9901870000
H 0.9608390000 -2.1581760000 -0.0659400000
O -0.6132490000 1.2772820000 0.9039580000
S -1.8698400000 -0.6725340000 -0.4188380000
H 2.4340040000 0.6614830000 -1.9513610000
H 4.0915510000 -0.3262630000 -0.5037650000
H 3.0002350000 1.7296490000 0.1419900000
C -3.1769200000 0.5942360000 -0.3260520000
H -3.4772280000 0.8789950000 -1.3333070000
H -2.7547980000 1.4516880000 0.2008090000
H -4.0285380000 0.1960170000 0.2233880000
