18
0 1
F -1.5301330000 -1.5119930000 -0.6365190000
N -0.3308010000 1.0281220000 0.5232380000
N -2.3251460000 1.3433160000 -0.9905990000
P -2.3393110000 -0.8219200000 0.6141050000
C -1.7942900000 0.9506480000 0.2906290000
F 1.5301340000 -1.5119930000 0.6365190000
N 0.3308010000 1.0281210000 -0.5232390000
N 2.3251440000 1.3433170000 0.9905990000
P 2.3393120000 -0.8219190000 -0.6141050000
C 1.7942890000 0.9506480000 -0.2906290000
H 2.1573030000 2.3312990000 1.1555880000
H 1.8369800000 0.8375090000 1.7235620000
H -1.8369820000 0.8375090000 -1.7235610000
H -2.1573050000 2.3312980000 -1.1555870000
H 1.3617630000 -1.0741760000 -1.6142620000
H 2.2576230000 1.5381550000 -1.0897690000
H -1.3617610000 -1.0741760000 1.6142620000
H -2.2576240000 1.5381540000 1.0897700000
