18
0 1
C -0.3990830000 1.6145170000 0.0347350000
C -1.7309280000 1.8086260000 -0.3241370000
C -2.6095770000 0.7308270000 -0.3558540000
C -2.1799830000 -0.5616060000 -0.0294980000
C -0.8427720000 -0.7386090000 0.3288820000
C 0.0642310000 0.3334430000 0.3652000000
H 0.2764250000 2.4634330000 0.0583350000
H -2.0847070000 2.8018030000 -0.5778730000
Si 1.8407920000 0.0596450000 0.8416520000
C -3.1423710000 -1.7242710000 -0.0676670000
H -3.6460810000 0.8926680000 -0.6356290000
H -0.5026030000 -1.7376370000 0.5869360000
Cl 3.0013360000 -0.4824820000 -0.8154000000
H -3.9962540000 -1.5536930000 0.5948670000
H -2.6580670000 -2.6521730000 0.2418510000
H -3.5392360000 -1.8745850000 -1.0763650000
H 1.9650700000 -1.0522410000 1.8041800000
H 2.4345590000 1.3020400000 1.3724110000
