12
0 1
F -2.5162090000 0.8860340000 0.0000120000
S -1.8492830000 -0.6347720000 -0.0000090000
C -0.1410570000 -0.2185160000 -0.0000030000
C 0.3255040000 1.0954030000 0.0000150000
C 0.7868050000 -1.2657310000 -0.0000170000
C 2.1377460000 -0.9392610000 -0.0000130000
C 1.7035850000 1.2940760000 0.0000180000
N 2.6090640000 0.3121060000 0.0000040000
H -0.3593730000 1.9313830000 0.0000260000
H 2.0968200000 2.3069630000 0.0000320000
H 0.4773400000 -2.3049770000 -0.0000320000
H 2.8806600000 -1.7318950000 -0.0000240000
