8
0 1
Si 1.5120940000 -0.1922330000 -0.0000000000
C -0.0730500000 0.8416750000 -0.0000000000
Cl -1.5416320000 -0.2337830000 0.0000000000
H -0.1491790000 1.4739070000 -0.8845420000
H -0.1491790000 1.4739070000 0.8845410000
H 1.5547690000 -1.0364090000 -1.2121170000
H 1.5547690000 -1.0364090000 1.2121170000
H 2.6655550000 0.7405300000 -0.0000000000
