20
0 1
O -0.9306460000 -1.1005030000 -0.2273500000
C 0.2790510000 -0.4629730000 -0.1402970000
C 0.4910670000 0.8865180000 -0.4323110000
C 1.3483030000 -1.2591010000 0.2853260000
C 2.6175460000 -0.7104580000 0.4098970000
C 2.8411390000 0.6344060000 0.1095760000
C 1.7740450000 1.4218920000 -0.3087170000
H -0.3299670000 1.5262670000 -0.7263630000
H 1.9298540000 2.4708710000 -0.5355840000
H 1.1575260000 -2.3024810000 0.5056560000
H 3.4385400000 -1.3381390000 0.7383900000
H 3.8328300000 1.0603470000 0.2050060000
C -2.0124720000 -0.4682430000 -0.9016450000
C -2.8571610000 0.4227760000 -0.0324300000
H -2.6286950000 -1.2900560000 -1.2814020000
H -1.6463110000 0.0828760000 -1.7777020000
C -2.7078790000 0.5911230000 1.2758120000
H -3.6605810000 0.9321200000 -0.5621160000
H -1.9202630000 0.0873530000 1.8236410000
H -3.3695950000 1.2392150000 1.8380020000
