11
0 1
C 1.4269860000 1.4675040000 0.0000000000
S 0.8474430000 -0.2267540000 0.0000000000
H 1.0729340000 1.9616630000 -0.9031480000
H 2.5157700000 1.4008000000 0.0000010000
H 1.0729330000 1.9616630000 0.9031480000
C -1.0148150000 0.0350830000 -0.0000000000
F -1.3781980000 0.7255370000 1.0872240000
F -1.6203600000 -1.1460830000 -0.0000010000
F -1.3781970000 0.7255380000 -1.0872240000
O 1.1685640000 -0.8410320000 1.2636200000
O 1.1685650000 -0.8410320000 -1.2636190000
