11
0 1
N 0.0161580000 -0.2177510000 -0.0000020000
B -1.2357560000 0.4389120000 -0.0000050000
O -2.3652530000 -0.3346070000 0.0000020000
C 1.2689030000 0.3918100000 -0.0000000000
C 2.4467490000 -0.2360840000 0.0000020000
H 1.2203520000 1.4760780000 -0.0000010000
H 2.5234790000 -1.3184100000 0.0000030000
H 3.3681630000 0.3291810000 0.0000030000
H -3.1721630000 0.1833450000 0.0000070000
H -1.2736820000 1.6326920000 -0.0000000000
H 0.0276380000 -1.2306920000 -0.0000010000
