20
0 1
F 1.5747420000 1.9710670000 -0.3260990000
S 0.6585610000 -0.7159570000 0.4838490000
O 0.8629940000 -2.0851080000 0.0230910000
O 0.9919810000 -0.3173590000 1.8431020000
P 1.8174210000 0.4997650000 -0.9982560000
C -1.0454250000 -0.2603950000 0.1802110000
C -1.5842950000 0.8347380000 0.8552680000
H -0.9808240000 1.3761550000 1.5720940000
C -2.9038910000 1.1958500000 0.6001710000
H -3.3396470000 2.0416530000 1.1187930000
C -3.6641800000 0.4671890000 -0.3143370000
H -4.6923080000 0.7517460000 -0.5070590000
C -3.1129010000 -0.6281550000 -0.9782670000
H -3.7110740000 -1.1968180000 -1.6805080000
C -1.7929660000 -0.9986630000 -0.7360220000
H -1.3471860000 -1.8537200000 -1.2278930000
C 3.4346400000 0.1011410000 -0.2319540000
H 3.6537200000 -0.9534170000 -0.4184220000
H 3.4176080000 0.2916810000 0.8423620000
H 4.2030550000 0.7114510000 -0.7121790000
