8
0 1
Si 2.3035320000 0.0000780000 0.0000850000
Si -0.0440680000 0.0000030000 0.0000080000
Cl -0.7832300000 1.4961250000 1.2231760000
H 2.7685670000 -0.2258460000 1.3854610000
Cl -0.7830550000 -1.8074380000 0.6840640000
H 2.7686070000 -1.0867220000 -0.8882550000
Cl -0.7830210000 0.3112310000 -1.9073340000
H 2.7685350000 1.3128360000 -0.4969230000
