16
0 1
P -0.2669470000 -0.1693730000 -0.7817240000
N 1.2514500000 -1.0503380000 -0.0258150000
N -0.1729920000 1.3868460000 -0.0609600000
O 1.3441500000 -2.2441680000 -0.2413770000
O 2.0606110000 -0.3814840000 0.6153700000
O 0.1157570000 1.5073370000 1.3043840000
O 0.6926570000 2.2183490000 -0.8177960000
C -1.4588790000 -0.9634730000 0.3888730000
C -2.8998730000 -0.5069130000 0.1273660000
H -1.1564650000 -0.7451230000 1.4148600000
H -1.3490530000 -2.0381180000 0.2189810000
H -3.0153460000 0.5621570000 0.3137090000
H -3.5848360000 -1.0403710000 0.7906780000
H -3.2069750000 -0.7092610000 -0.9022020000
H 0.2028240000 3.0486690000 -0.8829540000
H 1.0119670000 1.1291230000 1.3981300000
