19
0 1
B -2.9615510000 -0.0000390000 0.3433790000
C -0.4109740000 -0.0000260000 0.2127130000
C 0.4540810000 1.2022430000 -0.2090810000
C 0.4540910000 -1.2021810000 -0.2093540000
C 1.8971770000 -0.7809690000 0.1379230000
H 0.3459490000 -1.3473370000 -1.2913200000
H 0.1429440000 -2.1307510000 0.2739850000
C 1.8972780000 0.7809020000 0.1377010000
H 2.6192740000 -1.1925500000 -0.5701400000
H 2.1768870000 -1.1586770000 1.1247040000
H 2.1775660000 1.1588800000 1.1242100000
H 2.6190740000 1.1921460000 -0.5708650000
H 0.1430590000 2.1306430000 0.2746630000
H 0.3456930000 1.3478150000 -1.2909640000
N -1.7562120000 0.0000490000 -0.3448050000
H -0.5227910000 -0.0001650000 1.3013330000
H -2.9500540000 -0.0001930000 1.5372380000
H -3.9802180000 0.0000430000 -0.2777650000
H -1.7660640000 0.0001840000 -1.3577580000
