8
0 1
S 0.8803280000 0.9335870000 -0.5446400000
S -0.8802970000 0.9335090000 0.5448490000
C -1.7849840000 -0.3813440000 -0.2758160000
C 1.7849420000 -0.3815490000 0.2756690000
F 2.9944610000 -0.4286630000 -0.3226070000
O 1.4602830000 -1.0989380000 1.1481040000
O -1.4604790000 -1.0983190000 -1.1486470000
F -2.9943150000 -0.4289070000 0.3228180000
