9
0 1
B 1.6044690000 0.5683390000 0.0870380000
P 0.1224570000 -0.4989730000 -0.1514440000
C -1.4695240000 0.4190880000 0.0824260000
H -1.6216420000 0.7331600000 1.1150060000
H -2.3080590000 -0.2037570000 -0.2321120000
H -1.4441150000 1.3045980000 -0.5553860000
H 2.6255880000 0.0588510000 0.4221120000
H 1.5794500000 1.7006360000 -0.2796760000
H 0.1267260000 -1.4651130000 0.8719650000
