16
0 1
Si 1.0537790000 -0.9337000000 0.5347990000
Si -1.0537790000 -0.9337000000 -0.5347990000
C -2.1715820000 0.4944290000 -0.0597030000
H -1.7309020000 -2.2131590000 -0.1936700000
H -0.8710990000 -0.9395900000 -2.0108670000
C 2.1715820000 0.4944290000 0.0597020000
H 1.7309020000 -2.2131590000 0.1936700000
H 0.8711000000 -0.9395880000 2.0108670000
C 1.8559110000 1.4861950000 -0.7761520000
C -1.8559120000 1.4861940000 0.7761530000
H 3.1674510000 0.5063130000 0.5043280000
H 0.8857770000 1.5510620000 -1.2605390000
H 2.5551790000 2.2834330000 -1.0146760000
H -3.1674500000 0.5063140000 -0.5043320000
H -0.8857790000 1.5510600000 1.2605420000
H -2.5551790000 2.2834320000 1.0146770000
