14
0 2
C 1.1928200000 0.4844210000 -0.0604350000
O 0.0319120000 -0.2328830000 -0.0264250000
C -1.1707630000 0.5384220000 -0.0389160000
C -2.3485290000 -0.4138760000 0.0370670000
H -1.2059510000 1.1391870000 -0.9560980000
H -1.1678760000 1.2281870000 0.8164120000
H -2.3448000000 -1.0963270000 -0.8155690000
H -3.2885410000 0.1440770000 0.0306600000
H -2.3038290000 -1.0079870000 0.9525140000
C 2.4303390000 -0.3355940000 0.0145720000
H 1.1528020000 1.4835010000 0.3731020000
H 2.5574000000 -0.8192950000 0.9968940000
H 3.3108100000 0.2854250000 -0.1662750000
H 2.4114830000 -1.1339470000 -0.7339720000
