19
0 1
C 1.9823070000 -1.2098040000 0.0361760000
C 0.5985560000 -1.1792360000 0.0239190000
C 2.7261000000 -0.0146770000 0.0128220000
C 2.0334310000 1.2074400000 -0.0200770000
C 0.6473220000 1.2315860000 -0.0330600000
C -0.0903700000 0.0415970000 -0.0129330000
H 0.1177630000 2.1762790000 -0.0629460000
H 2.5028430000 -2.1615620000 0.0673160000
H 0.0455700000 -2.1110220000 0.0400660000
P -1.8701060000 0.1323010000 -0.0167020000
O -2.4225440000 1.4940790000 0.0310050000
O -2.4111250000 -0.8165660000 1.1828520000
N 4.1088950000 -0.0444460000 0.0777860000
H 4.5563310000 -0.9021030000 -0.2065700000
H 4.5931370000 0.7824220000 -0.2360530000
H 2.5909420000 2.1383420000 -0.0338990000
H -2.5988090000 -0.2936150000 1.9712310000
O -2.2532040000 -0.7874820000 -1.2750740000
H -3.2075430000 -0.8838130000 -1.3844770000
