16
0 1
C 0.1032510000 -1.8897850000 -0.0354180000
C 1.4473020000 -1.5376210000 -0.0193310000
C 1.8469650000 -0.1955900000 0.0104720000
C -0.8872610000 -0.9095920000 -0.0202770000
C -0.4937040000 0.4328490000 0.0003070000
C 0.8533290000 0.7829040000 0.0041680000
H 2.1941250000 -2.3235900000 -0.0433870000
P 3.6587620000 0.1868480000 0.0049620000
H -0.1930340000 -2.9298180000 -0.0752000000
N -1.4614340000 1.5532580000 0.0357300000
O -1.1548500000 2.5611650000 -0.5866410000
O -2.4723020000 1.4116950000 0.7020590000
Cl -2.5464700000 -1.4217010000 -0.1059490000
H 1.0982210000 1.8364600000 0.0002180000
H 3.7899580000 0.4765420000 1.3891800000
H 3.5472560000 1.5519180000 -0.3570830000
