17
0 1
C 0.5200340000 0.3793450000 0.0575590000
C -0.9011610000 -0.0462030000 0.0980010000
C -1.3636280000 -0.8024310000 1.1805930000
H -0.6776760000 -1.0784010000 1.9716480000
C -2.6982210000 -1.1907460000 1.2348840000
H -3.0561200000 -1.7668850000 2.0800270000
C -3.5684160000 -0.8456530000 0.2031700000
H -4.6066250000 -1.1547010000 0.2437580000
C -3.1044620000 -0.1058890000 -0.8839870000
H -3.7784060000 0.1564440000 -1.6910080000
C -1.7761860000 0.2998630000 -0.9373860000
H -1.4146810000 0.8735200000 -1.7813170000
N 1.4234250000 -0.7052000000 0.3160520000
N 1.0493900000 1.5346380000 -0.0687410000
Cl 3.1162060000 -0.2531050000 0.4618250000
Cl 1.2538980000 -1.9959170000 -0.9071320000
Cl -0.0421020000 2.8980950000 -0.0412390000
