9
0 1
S 0.7452140000 1.0266080000 -0.0000010000
Cl 1.8616560000 -0.7969890000 0.0000010000
N -0.8286300000 0.6870170000 -0.0000020000
C -1.4808560000 -0.4047960000 0.0000040000
C -2.9765850000 -0.4265330000 -0.0000010000
H -3.3799090000 0.5859210000 -0.0000120000
H -3.3491180000 -0.9620110000 0.8798230000
H -3.3491110000 -0.9620270000 -0.8798180000
H -0.9483820000 -1.3599300000 0.0000140000
