18
0 1
C -1.0296670000 0.0000000000 0.3287090000
C -0.3461750000 1.2640660000 -0.1726660000
F -2.3693470000 0.0000000000 -0.1047630000
C -0.3461750000 -1.2640660000 -0.1726660000
C 1.1431880000 1.2689790000 0.2093270000
H -0.8595080000 2.1417070000 0.2302530000
H -0.4541580000 1.2987080000 -1.2630420000
C 1.8544860000 0.0000000000 -0.2836650000
H 1.2387220000 1.3356930000 1.3006160000
H 1.6270690000 2.1616610000 -0.1974290000
C 1.1431880000 -1.2689790000 0.2093270000
H 2.8976860000 -0.0000000000 0.0472780000
H 1.8734940000 0.0000000000 -1.3807550000
H -0.4541580000 -1.2987080000 -1.2630420000
H -0.8595080000 -2.1417070000 0.2302530000
H 1.6270690000 -2.1616610000 -0.1974290000
H 1.2387220000 -1.3356930000 1.3006160000
H -1.0643790000 0.0000000000 1.4253450000
