13
0 1
Si -0.3708390000 0.0234370000 0.3592090000
O 0.8995850000 -0.8278380000 -0.3711090000
O 2.1412430000 -0.1253070000 -0.0277620000
H 2.6192290000 -0.8449020000 0.4056400000
C -0.4117510000 1.8005930000 -0.2082590000
H 0.5344900000 2.2975470000 0.0179850000
H -1.2124520000 2.3483300000 0.2993090000
H -0.5828580000 1.8674300000 -1.2863120000
C -1.8754070000 -0.9499040000 -0.1705550000
H -1.9932480000 -0.9313080000 -1.2572250000
H -2.7776540000 -0.5199570000 0.2757340000
H -1.8061590000 -1.9929070000 0.1480410000
H -0.1932720000 -0.0313320000 1.8317440000
