23
0 1
C 0.3136450000 0.1332500000 0.1251770000
C 0.9387770000 -1.1017300000 0.3645810000
C 2.3155410000 -1.2532810000 0.2405770000
C 3.1113350000 -0.1708860000 -0.1297920000
C 2.5101860000 1.0584060000 -0.3752910000
C 1.1287240000 1.2073360000 -0.2515650000
P -1.9860090000 -0.9571490000 -0.9684150000
H 2.7668850000 -2.2205940000 0.4318830000
H 4.1848270000 -0.2867880000 -0.2266760000
H 3.1141720000 1.9112330000 -0.6653580000
H 0.6947010000 2.1782490000 -0.4496380000
H 0.3413050000 -1.9616820000 0.6440140000
C -1.2074390000 0.2686230000 0.2737200000
C -1.7116070000 1.6997940000 0.0282230000
H -1.4830580000 2.0528300000 -0.9794360000
H -1.2683490000 2.3994520000 0.7458460000
H -2.7955760000 1.7407590000 0.1539270000
C -1.6514800000 -0.1694900000 1.6896090000
H -1.1982330000 0.4850860000 2.4403770000
H -1.3584730000 -1.1949830000 1.9193950000
H -2.7384510000 -0.1000620000 1.7931320000
H -1.6484460000 -0.2457740000 -2.1491280000
H -3.3072520000 -0.4326330000 -0.9235490000
