18
0 1
C 0.9184670000 -0.6033780000 0.5678480000
Si -0.8015540000 -1.0831490000 -0.0398810000
N -1.6613430000 0.3303410000 -0.5447680000
H -1.4751750000 -1.8132210000 1.0727390000
H -0.7288940000 -1.9576320000 -1.2318520000
N 1.6163980000 0.1778420000 -0.4495760000
C -2.2068480000 1.3352630000 0.3649010000
H -2.1649360000 0.2707550000 -1.4179650000
H -1.5465960000 1.4506650000 1.2289350000
H -3.2058190000 1.0843530000 0.7478450000
H -2.2667470000 2.3131490000 -0.1234440000
C 2.9144820000 0.6855190000 -0.0249990000
H 1.0214520000 0.9434920000 -0.7479190000
H 3.6001490000 -0.1512930000 0.1405180000
H 2.8815010000 1.2764470000 0.9083180000
H 3.3409630000 1.3110460000 -0.8136150000
H 1.4737680000 -1.5321030000 0.7584870000
H 0.8501020000 -0.0932730000 1.5501980000
