10
0 1
F 1.2296220000 -1.3385060000 -0.0001100000
F 1.6697120000 0.8800030000 -0.0001920000
B 0.7727010000 -0.0964280000 0.0003110000
C -0.7678660000 0.2325530000 0.0001060000
C -1.7635930000 -0.8984720000 0.0000370000
N -1.1913240000 1.4407610000 0.0000220000
H -1.6244230000 -1.5387620000 -0.8771920000
H -2.7776140000 -0.4985110000 -0.0000930000
H -1.6246220000 -1.5386970000 0.8773440000
H -0.4028410000 2.0948270000 0.0000950000
