12
0 1
B -2.4218130000 0.1353830000 -0.3489310000
B -1.1348570000 -0.0094940000 0.6218720000
B 0.4757110000 -0.1150940000 0.1184390000
O 0.9907480000 -1.3573320000 -0.1153600000
C 1.3419960000 1.1938930000 -0.0863860000
H 1.9198340000 -1.3421810000 -0.3726910000
H 1.1514300000 1.9561350000 0.6752890000
H 1.0764500000 1.6532680000 -1.0476910000
H 2.4220840000 1.0004050000 -0.1053260000
H -1.3031900000 0.0008860000 1.8128610000
H -3.0266740000 -0.8233450000 -0.7342640000
H -2.8131030000 1.1961590000 -0.7438890000
