13
0 1
C -2.1484420000 -0.2513920000 -0.5066220000
S -0.5920690000 -1.2169610000 -0.2605250000
B 0.7290300000 -0.0036470000 -0.0574920000
S 0.4176740000 1.7905260000 -0.1634940000
S 2.4298580000 -0.5860830000 0.2469640000
C -2.8286990000 0.1588420000 0.7958710000
H -2.7859180000 -0.9215810000 -1.0862930000
H -1.9229940000 0.6083930000 -1.1388900000
H -3.0576420000 -0.7139310000 1.4110140000
H -3.7674500000 0.6778840000 0.5773440000
H -2.1989160000 0.8309760000 1.3813580000
H 1.6872500000 2.1993170000 0.0052240000
H 2.1759420000 -1.9072490000 0.2350920000
