15
0 1
Si -2.5278940000 -0.4671070000 -0.4024060000
Si -0.7958660000 0.9383860000 0.3516380000
C 0.8477070000 -0.0651230000 0.3078890000
H -1.0146140000 1.3483860000 1.7580700000
H -0.7018890000 2.1687190000 -0.4830170000
O 0.8776660000 -1.1355520000 0.9032390000
N 1.9087230000 0.4392500000 -0.3859600000
H -2.2098840000 -0.9662190000 -1.7620660000
C 3.1918100000 -0.2451300000 -0.4814480000
H 3.0969780000 -1.1900360000 0.0506540000
H 3.9890550000 0.3452990000 -0.0211080000
H 3.4523600000 -0.4442480000 -1.5245090000
H -3.8001120000 0.2934050000 -0.4676290000
H -2.6992940000 -1.6164990000 0.5132300000
H 1.8005480000 1.3344820000 -0.8357060000
