13
0 1
S -0.7696120000 -1.0043370000 -0.4077980000
N -1.8462960000 0.5086880000 -0.2679720000
O -1.5187320000 1.3288820000 0.5123860000
C 0.5380960000 -0.6741660000 0.8112740000
C 1.8977640000 -0.2959970000 0.2075060000
H 0.6132440000 -1.5666070000 1.4355980000
H 0.1481480000 0.1412370000 1.4336640000
C 1.9054730000 1.0500050000 -0.5196700000
H 2.2283320000 -1.0894970000 -0.4702480000
H 2.6222290000 -0.2726350000 1.0301580000
H 1.1972290000 1.0542890000 -1.3523720000
H 2.8964760000 1.2659700000 -0.9260620000
H 1.6340670000 1.8657050000 0.1560830000
