20
0 1
Si 1.6089360000 -0.7397700000 -0.8224600000
C -0.0167520000 0.0482210000 -0.1059260000
O -0.9979750000 -0.3786690000 -1.0034880000
O 0.0414740000 1.4519090000 -0.1718370000
O -0.3506670000 -0.2699170000 1.2333430000
C -2.2863300000 0.2501260000 -0.8821990000
H -2.9610540000 -0.3440080000 -1.4970980000
H -2.2511350000 1.2766500000 -1.2493510000
H -2.6270710000 0.2443300000 0.1556190000
C 0.7712820000 2.1282930000 0.8521510000
H 0.7548830000 3.1825530000 0.5770300000
H 1.8124160000 1.7895150000 0.9000840000
H 0.3058430000 1.9910390000 1.8291080000
C -0.4360420000 -1.6567660000 1.5428000000
H -0.8567930000 -1.7209410000 2.5459310000
H 0.5514930000 -2.1339160000 1.5451710000
H -1.0867140000 -2.1836120000 0.8392500000
H 1.8559370000 -0.1263900000 -2.1425790000
H 1.4863940000 -2.2072720000 -0.9686090000
H 2.7550940000 -0.4569900000 0.0747830000
