15
0 2
C -0.3177570000 -0.0021560000 0.0000000000
C -0.7856560000 -0.7532430000 1.2615290000
H -0.4529580000 -0.2537560000 2.1755840000
H -0.4094140000 -1.7793710000 1.2806830000
H -1.8813670000 -0.7966160000 1.2856340000
C -0.7856590000 -0.7532540000 -1.2615210000
H -0.4094170000 -1.7793820000 -1.2806680000
H -0.4529620000 -0.2537750000 -2.1755810000
H -1.8813690000 -0.7966270000 -1.2856240000
C -0.8934280000 1.4269260000 -0.0000050000
H -1.9883340000 1.3934600000 -0.0000040000
H -0.5762420000 1.9874810000 -0.8839730000
H -0.5762400000 1.9874880000 0.8839570000
P 1.5676950000 0.1366950000 -0.0000020000
H 1.8078830000 -1.2689640000 0.0000040000
