9
0 1
C -0.0753390000 -0.8884740000 -0.0000150000
N 1.2340130000 -0.1500890000 -0.0000000000
N -1.2324500000 0.0966590000 -0.0000160000
H -0.1527390000 -1.4776010000 0.9082440000
H -0.1527240000 -1.4775870000 -0.9082850000
O 1.7014080000 0.1191130000 1.0911090000
O 1.7014500000 0.1190900000 -1.0910960000
O -0.9850270000 1.2818220000 -0.0000420000
O -2.3245110000 -0.4375190000 0.0000600000
