8
0 1
C 0.5287090000 0.1543540000 0.0133650000
O 1.0070560000 1.2676990000 0.0063680000
N 1.2735910000 -0.9880910000 -0.0164780000
H 2.2786920000 -0.8947170000 0.0207760000
H 0.8677590000 -1.8953000000 0.1359790000
P -1.3467800000 -0.0579370000 -0.1191130000
H -1.6133560000 0.7722960000 0.9931470000
H -1.4752470000 -1.2643160000 0.6210030000
