12
0 1
C 1.4311410000 -0.9584310000 0.1499010000
C 1.9073570000 0.3018270000 0.0834170000
P -0.2900490000 -1.3469970000 -0.2169310000
C -1.1361720000 0.3080060000 0.0230100000
C -0.2851770000 1.4975730000 -0.0913120000
C 1.0691740000 1.4769840000 -0.0568740000
O -2.3419940000 0.3594340000 0.1713950000
H 2.1142980000 -1.7912990000 0.2876270000
H 2.9756770000 0.4734520000 0.1728290000
H -0.8208750000 2.4418180000 -0.1131500000
H 1.5869980000 2.4310110000 -0.0944340000
H -0.6873390000 -1.9812490000 0.9810760000
