16
0 1
C 1.5842950000 -1.4107500000 -0.0153400000
C 2.7803850000 -0.7008380000 -0.0306550000
C 2.7803850000 0.7008380000 -0.0306530000
C 1.5842950000 1.4107490000 -0.0153350000
C 0.3845000000 0.6996580000 -0.0051440000
C 0.3845000000 -0.6996590000 -0.0051470000
H 1.5645080000 -2.4939300000 -0.0073120000
H 1.5645070000 2.4939290000 -0.0073010000
H 3.7238520000 -1.2346750000 -0.0389160000
H 3.7238520000 1.2346750000 -0.0389110000
C -0.9677750000 -1.3321300000 0.0358730000
C -0.9677750000 1.3321290000 0.0358890000
P -2.2896650000 0.0000010000 -0.2473730000
O -1.1755300000 -2.5111620000 0.1820910000
O -1.1755270000 2.5111640000 0.1820800000
H -2.8001470000 -0.0000050000 1.0727370000
