7
0 2
Si 1.5523410000 -0.1979100000 -0.0768520000
Si -0.6760450000 0.5129110000 0.0667030000
F -1.6465180000 -0.7721680000 -0.0976040000
H -1.0211840000 1.1380440000 1.3645610000
H -0.9688390000 1.4552060000 -1.0357050000
H 2.0526450000 -0.9623330000 1.0927350000
H 2.4879040000 0.9085900000 -0.4010660000
