18
0 1
B 0.7025610000 -1.0304570000 -0.4270290000
B -0.7025590000 -1.0304520000 0.4270390000
C -1.8394700000 0.0310260000 0.2236420000
N -1.6668580000 1.2092170000 0.7017640000
H -0.7332030000 1.3337540000 1.1081720000
C 1.8394720000 0.0310240000 -0.2236460000
N 1.6668510000 1.2092140000 -0.7017660000
H 0.7331930000 1.3337470000 -1.1081670000
C -3.1472540000 -0.3033680000 -0.4415980000
H -3.6440520000 -1.1285650000 0.0796190000
H -2.9865410000 -0.6286310000 -1.4751420000
H -3.7955130000 0.5750600000 -0.4352510000
C 3.1472580000 -0.3033630000 0.4415950000
H 3.6440580000 -1.1285590000 -0.0796190000
H 2.9865480000 -0.6286210000 1.4751400000
H 3.7955130000 0.5750680000 0.4352430000
H -0.8713500000 -1.8298130000 1.3051410000
H 0.8713470000 -1.8298220000 -1.3051290000
