14
0 1
C -0.4350680000 0.7652510000 0.0000030000
O -0.4597370000 1.9614430000 -0.0000190000
C 0.8883690000 -0.0658140000 0.0000020000
O -1.4812190000 -0.0497220000 0.0000040000
Cl 0.9290690000 -1.0998800000 -1.4703560000
Cl 0.9291040000 -1.0998150000 1.4704050000
Cl 2.2908500000 1.0227680000 -0.0000390000
C -2.7920220000 0.5872420000 -0.0000060000
C -3.8280540000 -0.5150880000 -0.0000030000
H -2.8603720000 1.2241870000 -0.8842390000
H -2.8603790000 1.2241990000 0.8842170000
H -3.7278870000 -1.1443830000 -0.8863690000
H -4.8285570000 -0.0751850000 -0.0000100000
H -3.7278940000 -1.1443700000 0.8863730000
