20
0 1
C -0.2198140000 0.0035110000 0.1193870000
N -0.6220030000 1.3445130000 -0.5497280000
O -1.8073290000 1.5063180000 -0.7360850000
O 0.2810390000 2.1046440000 -0.8264240000
C 1.1437790000 0.0160070000 0.7845270000
N -1.3506310000 -0.2521030000 1.1492020000
O -1.2679010000 0.4361050000 2.1474150000
O -2.2006330000 -1.0634740000 0.8738100000
N -0.3000910000 -1.0930580000 -0.9560820000
O -0.5338940000 -0.7486020000 -2.0931800000
O -0.0636440000 -2.2103270000 -0.5480560000
C 2.3549200000 -0.0635310000 -0.1615340000
H 1.1585230000 -0.8383650000 1.4664870000
H 1.1833230000 0.9190610000 1.3959030000
C 3.6647420000 0.0210030000 0.6275020000
H 2.3088040000 0.7442640000 -0.8919550000
H 2.3248300000 -1.0083550000 -0.7117630000
H 3.7450960000 0.9707130000 1.1635590000
H 4.5215070000 -0.0545930000 -0.0451930000
H 3.7441400000 -0.7874520000 1.3600890000
