10
0 1
P -1.2144910000 -0.0404780000 0.0000000000
C 0.5216500000 0.6536380000 -0.0000000000
C 1.6759930000 -0.3513270000 -0.0000000000
H 0.5848170000 1.3121490000 0.8729240000
H 0.5848170000 1.3121480000 -0.8729250000
H 1.6383270000 -0.9962670000 0.8820910000
H 2.6445590000 0.1595980000 -0.0000010000
H 1.6383270000 -0.9962690000 -0.8820900000
H -1.0296660000 -0.9990280000 1.0326990000
H -1.0296670000 -0.9990290000 -1.0326970000
