19
0 1
C 0.5987450000 1.7893450000 0.1697370000
C -0.6410970000 2.3064420000 -0.2098680000
C -1.7472070000 1.4789850000 -0.3182990000
C -1.6259740000 0.1091010000 -0.0455920000
C -0.3907810000 -0.4126850000 0.3383800000
C 0.7246410000 0.4295050000 0.4449680000
H 1.4619530000 2.4403930000 0.2478470000
H -0.7431450000 3.3645880000 -0.4221750000
C 2.0451700000 -0.1380580000 0.8624240000
H -0.2740410000 -1.4678680000 0.5483500000
H 2.7089550000 0.6247720000 1.2615360000
Cl 2.9642090000 -0.8818360000 -0.5487400000
H 1.9402670000 -0.9469200000 1.5822060000
H -2.7171290000 1.8615130000 -0.6115320000
O -2.7672500000 -0.6218950000 -0.1787090000
C -2.7098200000 -2.0219780000 0.0590670000
H -2.0147840000 -2.5175110000 -0.6275480000
H -3.7174130000 -2.3940420000 -0.1180020000
H -2.4202700000 -2.2424900000 1.0926640000
