7
0 1
Cl 2.0949300000 -0.5800300000 -0.0898080000
S 0.6203650000 0.8965300000 0.0621930000
C -0.7987730000 -0.0966990000 0.3300980000
N -1.8265340000 0.1854670000 -0.3703670000
H -0.7934090000 -0.8421940000 1.1237930000
O -2.9428250000 -0.5142710000 0.0716710000
H -3.6252600000 -0.2456850000 -0.5535220000
