15
0 1
C 0.2126760000 -1.2042790000 0.3355230000
C 1.5663080000 -1.2136430000 0.0165590000
C 2.2197210000 -0.0000020000 -0.1376730000
C 1.5663120000 1.2136420000 0.0165520000
C 0.2126800000 1.2042850000 0.3355150000
C -0.4793360000 0.0000040000 0.5000530000
H -0.3123090000 -2.1457300000 0.4541340000
H 2.1161280000 -2.1374710000 -0.1115090000
C -1.9336890000 0.0000080000 0.8474720000
H 2.1161350000 2.1374680000 -0.1115220000
F 3.5345760000 -0.0000050000 -0.4437040000
H -0.3123030000 2.1457380000 0.4541210000
H -2.2239190000 -0.8890120000 1.4024000000
Cl -3.0093540000 -0.0000050000 -0.6459220000
H -2.2239180000 0.8890370000 1.4023850000
