7
0 1
F 1.9351920000 -0.8457820000 0.0001170000
F 1.3046400000 1.3219270000 -0.0000600000
B 0.9537950000 0.0471070000 -0.0000620000
Si -0.9788990000 -0.5761340000 -0.0000320000
F -1.9661000000 0.7011270000 0.0000350000
H -1.2640340000 -1.3825260000 -1.2066800000
H -1.2639430000 -1.3825650000 1.2066100000
