11
0 1
B 1.6605030000 0.0000300000 -0.1861600000
C 0.3143960000 0.0000230000 0.5243720000
C -0.8693170000 -0.7377230000 -0.1468070000
C -0.8693310000 0.7377040000 -0.1468540000
H 0.2730120000 0.0000570000 1.6088630000
H -0.6671140000 1.2591930000 -1.0738870000
H -1.5383290000 1.2578570000 0.5278700000
H -1.5383080000 -1.2578450000 0.5279480000
H -0.6670900000 -1.2592670000 -1.0738070000
H 1.6874600000 -0.0001350000 -1.3825450000
H 2.6933720000 -0.0000360000 0.4120910000
