12
0 1
Si -0.9396280000 -0.7532030000 -0.0000000000
Si 0.9396270000 0.7532020000 0.0000000000
B 2.4282150000 -0.5639060000 0.0000010000
H 0.8317960000 1.6068760000 1.2086470000
H 0.8317970000 1.6068750000 -1.2086480000
H 2.8423910000 -1.0088260000 1.0241890000
H 2.8423900000 -1.0088270000 -1.0241880000
B -2.4282140000 0.5639070000 0.0000000000
H -0.8317980000 -1.6068780000 1.2086470000
H -0.8317970000 -1.6068760000 -1.2086490000
H -2.8423820000 1.0088340000 1.0241880000
H -2.8423810000 1.0088360000 -1.0241880000
