20
0 1
C 1.8419790000 1.5876170000 0.0173810000
B 1.6389410000 0.0250680000 0.0062590000
H 1.6946450000 1.9414200000 1.0481110000
H 1.1526600000 2.1559950000 -0.6090310000
H 2.8663370000 1.8661200000 -0.2531050000
C 2.8455200000 -0.9225720000 0.3647360000
H 3.6302720000 -0.8088520000 -0.3957730000
H 2.6093240000 -1.9856310000 0.4445940000
H 3.3068400000 -0.6025600000 1.3079100000
P -0.0000010000 -0.7517310000 -0.5108520000
B -1.6389000000 0.0250680000 0.0064010000
C -2.8455250000 -0.9225730000 0.3647220000
H -3.6302190000 -0.8087990000 -0.3958390000
H -3.3069100000 -0.6026060000 1.3078780000
H -2.6093520000 -1.9856400000 0.4445370000
C -1.8419890000 1.5876100000 0.0173590000
H -1.6946820000 1.9415140000 1.0480580000
H -2.8663510000 1.8660570000 -0.2531700000
H -1.1526770000 2.1559500000 -0.6090960000
H 0.0000140000 -2.0881810000 -0.0707850000
