15
0 1
C -0.4681390000 1.5558170000 0.0676570000
C -1.8020180000 1.7308200000 -0.2936630000
C -2.6637830000 0.6384600000 -0.3541090000
C -2.1631810000 -0.6181750000 -0.0469810000
C -0.8409710000 -0.8184340000 0.3146840000
C 0.0302360000 0.2798070000 0.3741820000
H 0.1863970000 2.4194430000 0.1120660000
H -2.1761930000 2.7205970000 -0.5281850000
Si 1.8169170000 0.0435220000 0.8499120000
F -2.9944010000 -1.6817050000 -0.0991100000
H -3.7055080000 0.7451540000 -0.6300000000
H -0.5116290000 -1.8253970000 0.5449080000
Cl 2.9909050000 -0.3714220000 -0.8282230000
H 1.9643770000 -1.1094460000 1.7580770000
H 2.3570880000 1.2800990000 1.4455330000
