13
0 1
Si -0.0347690000 0.1645200000 -0.6964530000
N -1.1185420000 -1.3034510000 -0.2265480000
B 1.8476470000 -0.2375620000 -0.0225860000
N -0.8128560000 1.5430170000 0.2855540000
O -0.4340260000 2.6469840000 -0.1029740000
O 2.0660730000 -1.3072620000 0.7644150000
O -0.6286870000 -2.1381410000 0.5497350000
O 2.8198460000 0.6146600000 -0.4125930000
O -2.2408940000 -1.3772330000 -0.6913760000
O -1.5597750000 1.3340510000 1.2268890000
H 3.6906050000 0.3913060000 -0.0577220000
H 1.2583490000 -1.8244040000 0.9315290000
H -0.3609380000 0.4561880000 -2.0963470000
