7
0 1
C 0.0017260000 0.8397600000 0.2636350000
O 1.1259270000 0.4810360000 -0.4414920000
O 1.7371480000 -0.6507730000 0.2218680000
H 1.3801410000 -1.3838200000 -0.3032580000
H 0.1618540000 0.8218070000 1.3389760000
H -0.2939360000 1.8151940000 -0.1159150000
Cl -1.4213540000 -0.2902260000 -0.0438010000
