14
0 1
N 2.5367630000 -0.0169470000 0.7260030000
O 1.8399000000 -0.0407370000 1.6565570000
S 1.6458070000 0.0254510000 -1.0096850000
C -0.0479200000 0.0124730000 -0.5085570000
C -0.7141200000 -1.2041740000 -0.3089460000
C -2.0384770000 -1.2111000000 0.1174340000
C -2.7038830000 -0.0095090000 0.3555360000
C -2.0415610000 1.2029200000 0.1693680000
C -0.7171770000 1.2177170000 -0.2566850000
H -0.1967620000 2.1563190000 -0.4028090000
H -3.7360720000 -0.0179510000 0.6865850000
H -2.5559340000 2.1383480000 0.3578280000
H -0.1914070000 -2.1342960000 -0.4954970000
H -2.5504490000 -2.1550750000 0.2654730000
