8
0 1
Cl 0.8751990000 0.5330390000 2.4067610000
N 0.1233570000 -0.1020220000 0.9926150000
C 0.8135370000 -0.6005890000 -0.1628350000
O 1.7488710000 -1.2911050000 -0.3500470000
C -0.8135370000 0.6005890000 0.1628350000
N -0.1233570000 0.1020220000 -0.9926150000
O -1.7488710000 1.2911050000 0.3500470000
Cl -0.8751990000 -0.5330390000 -2.4067610000
