18
0 1
C -1.5605240000 0.0068090000 0.0000300000
C -1.0544610000 1.3051250000 0.0000200000
C 0.3170510000 1.4945110000 0.0000090000
C -0.7205490000 -1.1008370000 0.0000270000
C 0.6542350000 -0.9086320000 0.0000170000
C 1.1787080000 0.3899880000 0.0000070000
H -1.1506170000 -2.0925450000 0.0000350000
H 1.3148950000 -1.7676870000 0.0000150000
O 2.5111800000 0.6442970000 -0.0000040000
Si 3.8326650000 -0.3777920000 -0.0000010000
N -3.0184110000 -0.1977240000 0.0000420000
O -3.7319530000 0.7978190000 -0.0000660000
O -3.4314600000 -1.3511040000 -0.0000590000
H -1.7401400000 2.1407610000 0.0000210000
H 0.7469350000 2.4878280000 0.0000020000
H 4.9969340000 0.5216780000 -0.0000100000
H 3.8173350000 -1.2333920000 -1.2064770000
H 3.8173410000 -1.2333760000 1.2064870000
