13
0 2
P 2.5574250000 -0.2878380000 -0.0214620000
C 0.7611680000 -0.1574260000 0.4699220000
H 2.2991840000 -0.5557180000 -1.3977850000
C -0.0498000000 0.8713920000 -0.3314390000
H 0.7391320000 0.0922150000 1.5358140000
H 0.3079950000 -1.1503830000 0.3678270000
C -1.5139260000 1.0035240000 0.1461720000
H -0.0435970000 0.6040330000 -1.3916780000
H 0.4127740000 1.8592750000 -0.2505070000
C -2.2780560000 -0.2327040000 -0.0085570000
H -2.0211150000 1.7921160000 -0.4179680000
H -1.5444570000 1.2969400000 1.2005010000
N -2.8610870000 -1.2185170000 -0.1401240000
