22
0 1
C 1.0107130000 1.1544900000 -0.3241700000
C 2.2496720000 1.3700860000 0.5565570000
C 3.3319770000 0.3178330000 0.2796800000
C 2.7748650000 -1.1052170000 0.4204220000
C 1.5333350000 -1.3175350000 -0.4583560000
C -0.7728320000 -0.5217550000 -1.0714940000
C 0.4421310000 -0.2660360000 -0.1731370000
S -2.2589470000 0.4890860000 -0.7587110000
Cl -2.8708160000 -0.2641550000 1.0872510000
H 1.2831110000 1.3168150000 -1.3768660000
H 0.2408080000 1.8920030000 -0.0820470000
H 1.9542100000 1.3172460000 1.6121200000
H 2.6487040000 2.3767010000 0.3969410000
H 4.1813790000 0.4595460000 0.9554400000
H 3.7175680000 0.4556560000 -0.7389420000
H 2.5070960000 -1.2867460000 1.4690350000
H 3.5425110000 -1.8421750000 0.1638160000
H 1.1308870000 -2.3245030000 -0.3030740000
H 1.8235970000 -1.2557560000 -1.5162940000
H -1.0737610000 -1.5715590000 -1.0525510000
H -0.5471350000 -0.2661550000 -2.1160330000
H 0.1188920000 -0.3970270000 0.8675650000
