23
0 1
C 0.3165410000 -1.3587310000 0.1417030000
C 1.7532130000 -1.0782680000 -0.3220080000
C 2.2649510000 0.2673510000 0.2103440000
C 1.3117310000 1.4120610000 -0.1599130000
C -0.1233530000 1.1229410000 0.3026030000
C -2.0832880000 -0.4892750000 0.2681630000
C -0.6533510000 -0.2219160000 -0.2283360000
B -3.2427290000 0.3975030000 -0.2653130000
H -3.1197420000 1.0607100000 -1.2528920000
H -4.3114600000 0.3745210000 0.2686200000
H 0.3066620000 -1.4904100000 1.2326880000
H -0.0399640000 -2.3028130000 -0.2860420000
H 1.7819680000 -1.0658160000 -1.4193850000
H 2.4165590000 -1.8893820000 -0.0041810000
H 3.2695530000 0.4707610000 -0.1745830000
H 2.3549180000 0.2121580000 1.3031470000
H 1.3183400000 1.5489230000 -1.2490230000
H 1.6634870000 2.3542650000 0.2730100000
H -0.7899510000 1.9340760000 -0.0126470000
H -0.1533030000 1.1046440000 1.4012160000
H -2.1072220000 -0.5738560000 1.3638700000
H -2.4096090000 -1.4966590000 -0.0671570000
H -0.6852490000 -0.1536140000 -1.3254070000
