16
0 1
F 0.4327290000 2.0234950000 0.0000020000
F -3.3031910000 -0.8007950000 0.0000000000
F -2.2277330000 1.6882760000 0.0000020000
O 3.1205910000 -1.3299830000 0.0000010000
O 3.0501580000 1.0140910000 0.0000010000
C -1.4307450000 0.6129580000 0.0000010000
C 0.8223890000 -0.3323070000 -0.0000010000
C 0.2321840000 -1.6076080000 -0.0000020000
H 0.8836610000 -2.4718980000 -0.0000040000
C -0.0495160000 0.7526320000 0.0000000000
C -1.1460710000 -1.7849230000 -0.0000020000
H -1.5990920000 -2.7680870000 -0.0000030000
C -1.9689250000 -0.6684800000 -0.0000000000
B 2.3890730000 -0.1785020000 -0.0000020000
H 2.4651190000 1.7776680000 0.0000010000
H 4.0668120000 -1.1504480000 0.0000020000
