21
0 1
C -0.8754520000 0.0275100000 -0.0000060000
O 0.4893730000 0.4953550000 -0.0011410000
C 1.5407860000 -0.4594550000 0.0001560000
C 2.8517970000 0.3100190000 -0.0002000000
C -1.1794270000 -0.7922220000 -1.2639270000
H -2.2476890000 -1.0172250000 -1.3232660000
H -0.6429440000 -1.7441380000 -1.2732260000
H -0.8969230000 -0.2273280000 -2.1559480000
C -1.1793100000 -0.7859490000 1.2679980000
H -0.6425740000 -1.7376630000 1.2821150000
H -2.2475130000 -1.0109550000 1.3284200000
H -0.8969840000 -0.2165000000 2.1571690000
H 1.4868790000 -1.1075040000 -0.8852110000
H 1.4863370000 -1.1057720000 0.8867540000
H 2.9193150000 0.9466080000 -0.8853670000
H 3.7015220000 -0.3784100000 0.0005870000
H 2.9189160000 0.9481580000 0.8838790000
C -1.6905530000 1.3235240000 -0.0031700000
H -2.7629140000 1.1123470000 -0.0024080000
H -1.4489050000 1.9152290000 -0.8889320000
H -1.4485480000 1.9197500000 0.8794570000
