15
0 1
F 2.9434050000 0.5721440000 0.0000570000
S 1.7778470000 -0.6765090000 -0.0000010000
C 0.3913140000 0.3890260000 -0.0000010000
C -0.8987240000 -0.1653860000 0.0000050000
C -2.0609060000 0.6103800000 -0.0000050000
C -1.9348370000 1.9849210000 -0.0000180000
C 0.4948750000 1.7908330000 -0.0000130000
H 1.4748260000 2.2439230000 -0.0000180000
C -0.6541680000 2.5633240000 -0.0000190000
H -0.5572990000 3.6429910000 -0.0000240000
H -2.8169250000 2.6124120000 -0.0000270000
N -0.9763070000 -1.5903840000 0.0000270000
O -2.0412760000 -2.1802170000 -0.0000230000
O 0.1403220000 -2.1749360000 -0.0000170000
H -3.0203400000 0.1108350000 -0.0000000000
