13
0 1
Si -0.0589690000 -0.1409230000 0.2503840000
N -0.4809810000 1.6577990000 -0.1251710000
B 1.9449330000 -0.3919950000 0.0037620000
N -1.0399430000 -0.9694970000 -1.0981640000
Cl -0.9103560000 -0.5395430000 2.0565820000
O -1.9702020000 -1.7297030000 -0.9321250000
O 2.7428640000 0.6655500000 -0.2234870000
O 0.4943990000 2.4222070000 -0.1707170000
O 2.3836630000 -1.6650960000 0.0910700000
O -1.6350620000 2.0020800000 -0.2801080000
O -0.5618370000 -0.6278750000 -2.1859330000
H 3.3356400000 -1.7565430000 -0.0473140000
H 2.2571760000 1.5062630000 -0.2650390000
