11
0 2
Si -1.7628350000 -0.8739870000 0.0559870000
S -0.0389260000 0.5435480000 0.0669930000
O 0.4415410000 0.7127940000 1.4211230000
O 1.1097650000 -0.2636110000 -0.7883300000
C 2.0778160000 -1.0670260000 -0.0743650000
H 2.8631560000 -1.2716930000 -0.7998510000
H 1.6311090000 -2.0069420000 0.2592180000
H 2.4779680000 -0.5178910000 0.7762290000
O -0.3819490000 1.6704870000 -0.7609000000
H -1.3303240000 -2.1208010000 0.7317190000
H -2.1611640000 -1.0988210000 -1.3519670000
