10
0 2
Si 2.1230280000 -0.2643130000 -0.0911640000
C 0.3466420000 0.4322700000 0.0067330000
H 3.0676290000 0.6709330000 0.5584750000
H 2.2207790000 -1.6459830000 0.4350510000
O 0.1189270000 1.6189790000 0.0139870000
S -0.9506710000 -0.8357910000 0.0137670000
C -2.4437430000 0.2088480000 -0.0084550000
H -3.0362480000 -0.0295200000 -0.8905640000
H -2.1085040000 1.2466360000 -0.0442840000
H -3.0241250000 0.0324220000 0.8957810000
