8
0 1
Si 1.1781560000 0.0000000000 -0.0000010000
Si -1.1781560000 -0.0000000000 0.0000010000
H 1.6939280000 1.2647600000 -0.5777190000
H 1.6939280000 -1.1327150000 -0.8064330000
H 1.6938980000 -0.1320510000 1.3841850000
H -1.6939020000 0.1320500000 -1.3841840000
H -1.6939260000 1.1327150000 0.8064330000
H -1.6939260000 -1.2647590000 0.5777210000
