10
0 2
Si 1.4924220000 -0.1677640000 -0.0634280000
B -0.5016380000 0.1128390000 0.0072540000
H 2.0761510000 -1.4618170000 0.3610790000
H 2.3831430000 0.9572260000 0.3267710000
O -1.0206410000 1.3748800000 0.0085560000
C -1.5084100000 -1.0938120000 0.0052320000
H -0.3680410000 2.0813010000 0.0228010000
H -1.4250550000 -1.6663240000 0.9370940000
H -1.2915110000 -1.8032260000 -0.8008790000
H -2.5448230000 -0.7588310000 -0.0949880000
