9
0 1
Cl -1.8367530000 -0.6506800000 0.0000100000
Cl 0.1832480000 1.6515000000 0.0000040000
N 0.8799290000 -1.0383260000 -0.0000130000
B -0.1379990000 -0.0997110000 -0.0000280000
C 2.3234570000 -0.8240270000 -0.0000020000
H 0.6007880000 -2.0098910000 -0.0000060000
H 2.5340120000 0.2434450000 -0.0000150000
H 2.7822770000 -1.2682570000 -0.8880330000
H 2.7822610000 -1.2682330000 0.8880500000
