11
0 1
Cl 1.9605150000 0.0000950000 -0.6698660000
S 0.7403800000 -0.0001620000 1.0761740000
P -1.2716680000 -0.0000650000 0.4948250000
C -1.4341810000 -1.4309860000 -0.6615280000
C -1.4341600000 1.4311810000 -0.6611270000
H -1.2605360000 -2.3571160000 -0.1124020000
H -0.7295790000 -1.3642570000 -1.4930440000
H -2.4548010000 -1.4437720000 -1.0540300000
H -1.2605000000 2.3571550000 -0.1117420000
H -2.4547800000 1.4440930000 -1.0536260000
H -0.7295600000 1.3646750000 -1.4926620000
