8
0 2
Si 0.3155110000 -0.0134520000 0.6081420000
C -1.5339040000 -0.3268890000 0.0267270000
Cl 0.9456440000 1.8535050000 -0.1311640000
Cl 1.4883910000 -1.4936010000 -0.2397530000
N -2.2856200000 0.7773980000 -0.2073990000
H -1.8632780000 1.6879680000 -0.2947560000
H -3.2436190000 0.6536410000 -0.5067420000
O -1.9357630000 -1.4690130000 -0.0144350000
