24
0 1
C 0.4536890000 0.9448790000 0.2386070000
C -0.8738710000 1.2961270000 0.0383730000
C -1.8919750000 0.3586560000 -0.0624060000
C -1.5266270000 -0.9730540000 0.0448530000
C -0.2089950000 -1.3722270000 0.2391920000
C 0.7937720000 -0.4078870000 0.3431090000
H 1.2016050000 1.7230100000 0.2915010000
H 0.0113800000 -2.4292000000 0.3071710000
C 2.2247660000 -0.8465710000 0.5750130000
C 2.8894060000 -0.2285300000 1.8018270000
H 2.9243860000 0.8577880000 1.7244520000
H 3.9093910000 -0.6017990000 1.9127720000
H 2.3216000000 -0.5022980000 2.6931170000
N 3.0585920000 -0.4969490000 -0.6733970000
H 2.2711360000 -1.9327400000 0.6078080000
O 3.3071570000 0.6822820000 -0.8646350000
O 3.4067350000 -1.4260230000 -1.3778010000
N -1.2245260000 2.7373880000 -0.0676330000
O -0.3169630000 3.5437830000 0.0605290000
O -2.3958800000 3.0122900000 -0.2721580000
H -2.9190570000 0.6535410000 -0.2171820000
N -2.5822490000 -2.0133810000 -0.0537850000
O -3.7260320000 -1.6329250000 -0.2419190000
O -2.2305370000 -3.1776660000 0.0625660000
