19
0 1
O -0.0000010000 0.9376630000 -0.0000090000
C -1.1101950000 0.1220900000 0.4203150000
C -0.7651360000 -1.3028790000 -0.0348640000
C 0.7651370000 -1.3028800000 0.0348640000
H -1.1019070000 -1.4589650000 -1.0655450000
H -1.2316690000 -2.0660330000 0.5917930000
C 1.1101990000 0.1220890000 -0.4203170000
H 1.2316700000 -2.0660350000 -0.5917910000
H 1.1019070000 -1.4589640000 1.0655450000
C 2.3990880000 0.6962910000 0.1455510000
H 1.1545610000 0.1518480000 -1.5189700000
H 2.3771940000 0.6766830000 1.2385440000
H 2.5279070000 1.7325270000 -0.1747640000
H 3.2635390000 0.1202880000 -0.1989460000
C -2.3990910000 0.6962890000 -0.1455420000
H -1.1545470000 0.1518520000 1.5189680000
H -2.3772090000 0.6766760000 -1.2385350000
H -2.5279070000 1.7325260000 0.1747710000
H -3.2635380000 0.1202870000 0.1989670000
