10
0 1
Si -0.4284350000 0.6891530000 -0.0000640000
C 0.7857030000 -0.7722440000 0.0000060000
C 2.1649070000 -0.3157720000 0.0001980000
N 3.2441090000 0.0913130000 -0.0001370000
C -2.1299510000 -0.0471150000 -0.0002040000
H -0.2831700000 1.4975660000 -1.2211700000
H -0.2834160000 1.4974840000 1.2211240000
N -3.1813170000 -0.5263920000 0.0002800000
H 0.6006570000 -1.3933960000 -0.8816530000
H 0.6005210000 -1.3934590000 0.8815890000
