8
0 1
C 1.4317960000 0.0000000000 -0.3960890000
Si -0.2809380000 0.0000000000 0.4509300000
Cl -1.2980760000 -1.6874650000 -0.1446040000
Cl -1.2980770000 1.6874650000 -0.1446050000
H -0.1364770000 0.0000000000 1.9101940000
F 2.1212450000 1.1105650000 0.0310640000
F 2.1212450000 -1.1105650000 0.0310630000
H 1.4310210000 0.0000010000 -1.4892730000
