18
0 1
Si 0.8332110000 -1.0965980000 -0.8344170000
Si -0.8332080000 -1.0966100000 0.8344040000
S -2.8335410000 -0.9959070000 -0.0294960000
H -0.6559560000 0.0031920000 1.8087570000
H -0.8019180000 -2.3971210000 1.5494080000
S -2.8060170000 0.9810990000 -0.7588790000
S 2.8335360000 -0.9959070000 0.0295050000
H 0.6559720000 0.0032160000 -1.8087590000
H 0.8019300000 -2.3970990000 -1.5494420000
S 2.8060230000 0.9811000000 0.7588860000
C -3.4473700000 1.9284840000 0.6645620000
H -3.5048810000 2.9649940000 0.3226070000
H -2.7708860000 1.8660710000 1.5160930000
H -4.4426320000 1.5813200000 0.9383050000
C 3.4473600000 1.9284820000 -0.6645650000
H 3.5048880000 2.9649890000 -0.3226070000
H 2.7708590000 1.8660790000 -1.5160840000
H 4.4426130000 1.5813080000 -0.9383270000
