8
0 1
Si 0.9545090000 0.0000000000 -0.4044430000
C -0.9132130000 0.0000000000 0.0113780000
F -1.1575970000 -0.0000030000 1.3380980000
F 1.5938370000 -1.2914360000 0.2609240000
F -1.5193630000 -1.0910010000 -0.5165790000
F 1.5938380000 1.2914360000 0.2609230000
F -1.5193620000 1.0910040000 -0.5165740000
H 1.1939640000 -0.0000000000 -1.8471930000
