12
0 1
C 0.8494810000 -1.0729490000 0.0649230000
N -0.0070550000 0.0193590000 -0.3801070000
H 0.9174180000 -1.1366290000 1.1686840000
H 1.8575360000 -0.9334310000 -0.3331750000
H 0.4645750000 -2.0248320000 -0.3103060000
N 0.4598490000 1.2970720000 0.0540210000
H 1.2586540000 1.5457700000 -0.5209600000
H 0.7868030000 1.2466550000 1.0257740000
C -1.3846850000 -0.1492010000 0.0599270000
H -1.7843350000 -1.0813830000 -0.3472220000
H -1.9777530000 0.6860170000 -0.3108560000
H -1.4812280000 -0.1842840000 1.1615630000
