24
0 1
B 0.7059190000 1.2814890000 0.3862780000
B -0.7059320000 1.2814830000 -0.3861620000
B -2.1075050000 0.4245200000 0.0286900000
O -2.4452580000 -0.8028340000 -0.4514090000
C -3.1202870000 1.0753380000 1.0554680000
H -3.2765700000 2.1446230000 0.8794660000
H -2.7142220000 0.9942900000 2.0722790000
H -4.0911160000 0.5711600000 1.0419130000
C -1.6552110000 -1.5220600000 -1.3925920000
H -2.1331010000 -1.4811900000 -2.3746970000
H -1.5995260000 -2.5646660000 -1.0731810000
H -0.6401290000 -1.1177740000 -1.4702340000
B 2.1074790000 0.4245460000 -0.0287100000
O 2.4452610000 -0.8028080000 0.4513700000
C 3.1202130000 1.0753820000 -1.0555230000
H 2.7136510000 0.9954910000 -2.0722200000
H 4.0907100000 0.5705460000 -1.0427740000
H 3.2773100000 2.1444170000 -0.8786930000
C 1.6553040000 -1.5220750000 1.3925900000
H 2.1339530000 -1.4822640000 2.3743660000
H 1.5985430000 -2.5644200000 1.0725060000
H 0.6406040000 -1.1170280000 1.4712690000
H -0.8173630000 2.0261570000 -1.3265340000
H 0.8173110000 2.0260920000 1.3267060000
