14
0 1
S -0.9219920000 -1.2428900000 -0.4724670000
S 0.9219950000 -1.2428930000 0.4724540000
C 1.7158660000 0.1406180000 -0.3956120000
C -1.7158740000 0.1405930000 0.3956340000
O -1.2056770000 0.8543440000 1.1987880000
O 1.2056550000 0.8544020000 -1.1987290000
C 3.2027140000 0.3266900000 0.0175270000
C -3.2027110000 0.3266900000 -0.0175320000
F -3.4265000000 1.5920890000 -0.3711980000
F -3.9946490000 0.0180460000 1.0156950000
F -3.5279200000 -0.4715100000 -1.0518720000
F 3.4265290000 1.5920810000 0.3712030000
F 3.9946260000 0.0180450000 -1.0157200000
F 3.5279310000 -0.4715290000 1.0518510000
