17
0 1
C 0.5777180000 -1.5647440000 -1.5526700000
Si 0.1254640000 -0.6257080000 0.0000050000
H 0.4356400000 -0.9547600000 -2.4480480000
H -0.0647270000 -2.4458750000 -1.6443440000
H 1.6184130000 -1.8948590000 -1.5181240000
C 0.5777140000 -1.5647090000 1.5527010000
H 0.4356410000 -0.9547020000 2.4480650000
H 1.6184080000 -1.8948300000 1.5181620000
H -0.0647360000 -2.4458340000 1.6443980000
B -1.7014740000 0.2705960000 -0.0000090000
N 1.3661940000 0.8281640000 -0.0000150000
O 0.9389120000 1.9944720000 -0.0000350000
O 2.5588350000 0.5597200000 0.0000390000
O -2.7902070000 -0.5494610000 -0.0000070000
O -1.8477950000 1.6161400000 -0.0000200000
H -3.6192470000 -0.0526350000 -0.0000140000
H -0.9824120000 2.0630390000 -0.0000150000
