7
0 1
B -1.9981640000 -0.2185510000 -0.0000380000
B -0.5577660000 0.5910980000 0.0001750000
S 1.0398420000 -0.2196570000 0.0000240000
H 1.8417050000 0.8611860000 -0.0003380000
H -2.5642940000 -0.4978030000 -1.0150500000
H -2.5648750000 -0.4972550000 1.0148000000
H -0.5703510000 1.7856570000 -0.0004820000
