20
0 1
C 1.0208990000 1.0620460000 -0.0001400000
C -0.3483050000 0.8520410000 -0.0000930000
C 1.8908830000 -0.0249290000 -0.0001610000
C 1.4066750000 -1.3298240000 -0.0001220000
C 0.0392900000 -1.5381820000 -0.0000750000
C -0.8637070000 -0.4574830000 -0.0000600000
H -0.3442090000 -2.5535990000 -0.0000500000
H 1.4298350000 2.0628230000 -0.0001670000
H -1.0260680000 1.6918150000 -0.0000820000
B -3.3807740000 0.1348990000 0.0000150000
O -4.6587370000 -0.3701090000 0.0000640000
O -3.2295830000 1.4925010000 -0.0000070000
N 3.3385600000 0.2053800000 -0.0002130000
O 3.7336490000 1.3665560000 0.0003210000
O 4.0739520000 -0.7770690000 0.0003390000
H 2.1045600000 -2.1552180000 -0.0001340000
H -4.0819840000 1.9385930000 0.0000160000
H -4.7357950000 -1.3264340000 0.0000790000
N -2.2316470000 -0.7318600000 -0.0000120000
H -2.4195090000 -1.7241550000 0.0000060000
