21
0 1
S -1.9148040000 0.1144630000 0.0423190000
C -1.6387760000 -1.0338810000 1.3958370000
O -3.1582760000 -0.2470390000 -0.6113640000
O -1.7165290000 1.4573180000 0.5539880000
H -1.7370120000 -2.0543280000 1.0274360000
H -2.4203540000 -0.8174300000 2.1245660000
H -0.6550330000 -0.8534960000 1.8256880000
C 0.8167410000 -0.1100020000 -0.6056600000
C 1.6088030000 -1.2439690000 -0.3967890000
C 1.3452740000 1.1504110000 -0.3013230000
C 2.9036680000 -1.1248380000 0.1030770000
C 2.6378770000 1.2686120000 0.1994280000
C 3.4206810000 0.1328390000 0.4030280000
H 1.2142120000 -2.2260950000 -0.6377120000
H 3.5074460000 -2.0126490000 0.2532490000
H 0.7340060000 2.0330760000 -0.4447360000
H 3.0354340000 2.2502890000 0.4305610000
H 4.4287230000 0.2287500000 0.7900580000
C -0.5775300000 -0.2507000000 -1.1497080000
H -0.7904060000 0.4621940000 -1.9508710000
H -0.7821410000 -1.2548010000 -1.5236830000
