16
0 1
B 1.0066640000 0.0000000000 1.2907600000
C -0.0098330000 0.0000000000 0.1016410000
C -0.8873050000 -1.2638340000 0.0308940000
H -1.5839060000 -1.3107860000 0.8738060000
H -0.2808400000 -2.1735090000 0.0521850000
C 0.9773560000 0.0000000000 -1.1108010000
H -1.4841450000 -1.2766660000 -0.8888860000
H 0.3951810000 0.0000000000 -2.0396730000
H 1.6176020000 0.8872040000 -1.1241430000
H 1.6176030000 -0.8872030000 -1.1241430000
C -0.8873060000 1.2638340000 0.0308940000
H -1.5839070000 1.3107850000 0.8738060000
H -1.4841460000 1.2766650000 -0.8888860000
H -0.2808420000 2.1735090000 0.0521850000
H 1.4383050000 -1.0276610000 1.7220910000
H 1.4383050000 1.0276620000 1.7220910000
