17
0 1
C 1.2087420000 0.0333780000 0.2089070000
C 0.1711930000 0.9900470000 -0.4055480000
Si -1.5693080000 0.8384500000 0.2658850000
C 2.6194950000 0.2214580000 -0.3645100000
H 0.4754890000 2.0334810000 -0.2403380000
Cl -2.3435100000 -1.0636400000 -0.1397220000
H 0.1288370000 0.8576720000 -1.4934410000
H 0.8914800000 -1.0030000000 0.0477550000
H 1.2423500000 0.1753520000 1.2961860000
C 3.6489040000 -0.7326080000 0.2473180000
H 2.9380600000 1.2585340000 -0.2037920000
H 2.5858480000 0.0779860000 -1.4511080000
H 3.7286150000 -0.5885330000 1.3293010000
H 4.6418500000 -0.5752490000 -0.1821340000
H 3.3731090000 -1.7770570000 0.0725290000
H -2.4793670000 1.8109600000 -0.3736380000
H -1.6062900000 0.9997770000 1.7345650000
