18
0 1
C 2.1371580000 -0.2789600000 0.1500610000
C 1.6938640000 1.0381610000 0.1450690000
C 0.3615420000 1.3074460000 -0.1462490000
C 1.2503870000 -1.3120920000 -0.1337540000
C -0.0714760000 -1.0020180000 -0.4186680000
C -0.5552040000 0.3026930000 -0.4406760000
F 3.4127540000 -0.5529790000 0.4289530000
F 2.5503690000 2.0276960000 0.4215830000
F -0.0234900000 2.5959280000 -0.1309880000
F 1.6783960000 -2.5791620000 -0.1257020000
F -0.9119410000 -2.0216970000 -0.6852830000
B -3.5948270000 -0.1023890000 0.6535050000
O -3.0138300000 -0.5989320000 1.7670270000
H -3.6381270000 -0.9249190000 2.4253080000
Si -2.3899770000 0.6208710000 -0.8142410000
H -4.7899070000 -0.0839510000 0.5507120000
H -2.5752090000 2.0807530000 -0.9777730000
H -2.7047350000 -0.0201270000 -2.1143950000
