26
0 2
C -5.1051290000 0.4534490000 0.1336830000
C -3.8809280000 -0.3450670000 -0.3232090000
H -6.0303210000 0.0321940000 -0.2689600000
H -5.0434160000 1.4951160000 -0.1964440000
H -5.1897490000 0.4579350000 1.2249270000
C -2.5586220000 0.2104620000 0.2180050000
H -3.8434090000 -0.3604350000 -1.4191750000
H -3.9886120000 -1.3902560000 -0.0085900000
C -1.3278730000 -0.5829480000 -0.2348930000
H -2.5963510000 0.2263640000 1.3150380000
H -2.4509250000 1.2563660000 -0.0968870000
C -0.0071270000 -0.0247400000 0.3061340000
H -1.2903470000 -0.5979680000 -1.3315180000
H -1.4360650000 -1.6290170000 0.0801670000
C 1.2193460000 -0.8224550000 -0.1473650000
H -0.0421930000 -0.0063980000 1.4032860000
H 0.1038470000 1.0178700000 -0.0168420000
C 2.5512930000 -0.2938190000 0.3979100000
H 1.2677760000 -0.8386730000 -1.2421040000
H 1.1126540000 -1.8651840000 0.1814820000
C 3.7381360000 -1.1951490000 0.0054370000
H 2.5092710000 -0.2431880000 1.4910730000
S 2.9413190000 1.3961380000 -0.1862610000
H 3.5587550000 -2.2069090000 0.3817430000
H 4.6765810000 -0.8333660000 0.4293390000
H 3.8468290000 -1.2510610000 -1.0805700000
