13
0 1
P 0.0951980000 0.6982310000 -0.7204730000
N -1.4109500000 0.2515230000 -0.0251390000
N 1.2564790000 -0.6746190000 -0.0667630000
O -2.0538100000 -0.7044910000 -0.8539360000
O -1.4649630000 -0.1592110000 1.3128940000
O 2.4462070000 -0.5106150000 -0.2600700000
O 0.7557160000 -1.6516470000 0.4872270000
C 0.6390550000 1.9216670000 0.5370710000
H 1.7077270000 2.0911830000 0.3970630000
H 0.4341450000 1.5788030000 1.5509020000
H 0.1027520000 2.8538230000 0.3501170000
H -2.9640290000 -0.3833560000 -0.8981520000
H -0.9267970000 -0.9745200000 1.3391460000
