10
0 2
C 1.2757290000 -0.1229070000 -0.0073310000
N 0.0067520000 0.6004860000 -0.0526710000
C -1.2876580000 -0.0985320000 -0.0027190000
O 0.0507480000 1.8691230000 -0.0115090000
F 1.0559110000 -1.4244460000 -0.1966510000
F 1.8715410000 0.0512890000 1.1724580000
F 2.0822720000 0.3352270000 -0.9575140000
F -1.4689060000 -0.8324590000 -1.1038040000
F -1.3385190000 -0.9139800000 1.0561560000
F -2.2447070000 0.8035080000 0.0872520000
