16
0 1
N -0.5736160000 1.3811930000 -0.2354170000
C -0.4884210000 0.0237780000 0.3280920000
H 0.2040490000 1.9477450000 0.0886660000
H -1.4160010000 1.8397650000 0.0997420000
H -0.3803540000 0.0363120000 1.4281320000
C 0.7374420000 -0.7002710000 -0.2470810000
C 2.0782630000 -0.0413100000 0.0916040000
H 0.6199330000 -0.7569540000 -1.3349140000
H 0.7357360000 -1.7288000000 0.1313810000
H 2.1669420000 0.9485730000 -0.3648190000
H 2.9138140000 -0.6405860000 -0.2795100000
C -1.7791070000 -0.7241670000 -0.0079590000
H -2.6489640000 -0.2236020000 0.4297200000
H -1.7537730000 -1.7461180000 0.3792970000
H -1.9220790000 -0.7622100000 -1.0913920000
H 2.2069370000 0.0693460000 1.1736750000
