9
0 2
C 0.7729840000 -0.1888490000 -0.0930140000
O 1.2462400000 0.4575940000 -1.3252540000
O 1.6387600000 1.7026880000 -1.1794950000
C -0.7824270000 0.0764820000 0.0449610000
Cl 1.1058920000 -1.9058580000 -0.3889780000
Cl -1.0814600000 1.8224700000 0.2717940000
Cl -1.6088610000 -0.4588900000 -1.4481150000
Cl -1.4323290000 -0.8253010000 1.4447100000
Cl 1.6624440000 0.3906340000 1.3162540000
