8
0 1
F -2.0532180000 -0.9060450000 -0.0000270000
B -1.0628500000 -0.0217250000 0.0000400000
F -1.3934250000 1.2577240000 -0.0000190000
C 0.4047010000 -0.5124920000 0.0000190000
N 1.3332690000 0.3702750000 0.0000140000
H 0.6609520000 -1.5737800000 0.0000120000
O 2.5914910000 -0.1959430000 -0.0000000000
H 3.1800540000 0.5678680000 -0.0000000000
