18
0 2
F 2.0641650000 -0.9718070000 -1.1041690000
B 0.7663700000 -1.1216450000 -0.9918590000
C -0.1532900000 -0.0750010000 -0.1599140000
O -1.5143410000 -0.3550720000 -0.2570960000
O 0.0917500000 1.1484700000 -0.7780050000
O 0.1503500000 -0.0575110000 1.2306950000
C -1.9314270000 -1.5929540000 0.3120730000
H -2.9783070000 -1.7165700000 0.0374250000
H -1.8282420000 -1.5831850000 1.3990500000
H -1.3504800000 -2.4276140000 -0.1019670000
C -0.8002550000 2.2234770000 -0.4306920000
H -0.3354680000 3.1269020000 -0.8232240000
H -0.9122740000 2.3016450000 0.6530200000
H -1.7787490000 2.0751170000 -0.8888760000
C 1.4731100000 0.3386270000 1.5980920000
H 1.4462500000 0.5143260000 2.6730620000
H 1.7687910000 1.2557220000 1.0831310000
H 2.2082460000 -0.4438550000 1.3830910000
