19
0 1
C -2.2866090000 -0.6752320000 -0.0000000000
C -1.8445790000 0.6496380000 -0.0000000000
C -0.4907140000 0.9711340000 -0.0000000000
C -1.3539180000 -1.7028060000 -0.0000000000
C 0.0124650000 -1.4144380000 0.0000000000
C 0.4409090000 -0.0866060000 0.0000000000
H -1.6776180000 -2.7376380000 -0.0000000000
H 0.7274510000 -2.2262030000 0.0000000000
O 1.7536850000 0.2963250000 0.0000000000
C 2.7558990000 -0.7076300000 0.0000010000
H 3.7079510000 -0.1788290000 0.0000010000
H 2.6938770000 -1.3392190000 -0.8936000000
H 2.6938760000 -1.3392190000 0.8936010000
H -3.3477580000 -0.8950030000 -0.0000010000
C -0.0065380000 2.3971510000 -0.0000000000
H -0.8480420000 3.0923730000 -0.0000010000
H 0.6145710000 2.6043580000 -0.8764550000
H 0.6145700000 2.6043580000 0.8764550000
H -2.5698450000 1.4571580000 -0.0000010000
