22
0 1
C -2.0404290000 -1.5363940000 0.0832240000
C -3.3504590000 -1.1293200000 0.1570170000
C -3.6738960000 0.2473530000 0.1366080000
C -2.6791860000 1.1909160000 0.0429880000
C -1.3173190000 0.8042580000 -0.0342310000
C -0.9895070000 -0.5872460000 -0.0151310000
H -1.7921450000 -2.5925190000 0.0989600000
H -4.1439670000 -1.8643170000 0.2315540000
H -4.7118030000 0.5546950000 0.1956410000
H -2.9243790000 2.2477740000 0.0273180000
C 0.3730750000 -0.9754620000 -0.0893640000
C 1.3816680000 -0.0391840000 -0.1785250000
C -0.2606730000 1.7473570000 -0.1338520000
C 1.0467800000 1.3433120000 -0.2113920000
H -0.5030120000 2.8048490000 -0.1532470000
H 1.8347200000 2.0834440000 -0.2953440000
B 4.2647200000 0.2559380000 0.8688620000
H 0.6065030000 -2.0351880000 -0.0659710000
P 3.1269360000 -0.5345510000 -0.3441250000
H 4.0812050000 1.3773670000 1.2168860000
H 5.2775200000 -0.3116080000 1.1261110000
H 3.1073840000 -1.9194640000 -0.1083960000
