19
0 1
C 2.5434590000 -0.3042690000 -0.3151410000
C 1.1423980000 0.1775510000 0.0334310000
S -0.1492320000 -0.7278880000 -0.8241460000
O 0.9452100000 1.0792550000 0.8255210000
P -1.9563670000 -0.0243100000 0.1559750000
O -2.4335530000 -0.9667470000 1.1680950000
C 3.1128810000 -1.0653860000 0.8984170000
H 3.1814970000 -0.4039150000 1.7646210000
H 4.1136230000 -1.4350110000 0.6633690000
H 2.4874570000 -1.9202970000 1.1651670000
C 3.4234180000 0.8911480000 -0.7112650000
H 2.4669800000 -0.9966970000 -1.1586620000
H 3.4797240000 1.6116210000 0.1065640000
H 3.0295090000 1.4032370000 -1.5924480000
H 4.4339810000 0.5463400000 -0.9421550000
O -2.9453530000 0.1696600000 -1.0828740000
H -3.6721410000 -0.4647340000 -1.0442580000
O -1.6214650000 1.4595180000 0.5406690000
H -0.6790700000 1.5425680000 0.8405760000
