15
0 1
B 2.4187370000 -0.1490600000 0.0000000000
Cl -3.0044440000 -0.3866130000 -0.0000010000
Cl -0.2981850000 -1.9981500000 0.0000000000
O 3.4339950000 0.7614830000 -0.0000050000
H 4.2961710000 0.3319150000 -0.0000030000
O 2.7339350000 -1.4691290000 0.0000090000
H 1.9660660000 -2.0522190000 0.0000120000
N -1.5420310000 1.7794220000 -0.0000010000
C -1.4734690000 0.4671000000 0.0000010000
C -0.2585710000 -0.2384760000 0.0000000000
C 0.9515510000 0.4652930000 -0.0000010000
C 0.8457350000 1.8658160000 -0.0000020000
H 1.7485790000 2.4619720000 -0.0000030000
C -0.4000290000 2.4730050000 -0.0000020000
H -0.5003450000 3.5533860000 -0.0000030000
