15
0 1
Cl 2.7070180000 0.0232020000 -0.1059890000
S 0.8212050000 -0.7706420000 0.4097000000
C -0.3943790000 0.2400270000 -0.5466940000
O -0.1908700000 1.6165310000 -0.5056100000
N -1.5938950000 -0.2858120000 0.0629730000
C -2.6334620000 -0.7183340000 -0.8677000000
H -2.1974500000 -1.3467510000 -1.6455260000
H -3.1513840000 0.1283320000 -1.3439700000
H -3.3719230000 -1.3165980000 -0.3300120000
C -2.1043610000 0.4505760000 1.2158400000
H -1.2971040000 0.6524230000 1.9210860000
H -2.8428330000 -0.1668090000 1.7303310000
H -2.5762950000 1.4015930000 0.9313700000
H -0.3603250000 -0.0450870000 -1.5961070000
H 0.1161600000 1.8635600000 0.3748360000
