24
0 1
Si -1.1874110000 1.5675200000 0.3671350000
C 0.5209750000 2.0735950000 -0.2790210000
C 1.7547070000 -0.0975070000 0.3225150000
O 1.1220630000 -0.1315260000 1.3595370000
C 1.5030050000 0.9779850000 -0.7184800000
H 1.1368560000 0.4554650000 -1.6102870000
H 2.4685170000 1.4121870000 -1.0063920000
C -1.9653280000 0.0881120000 -0.5640830000
H -2.1071120000 2.7004950000 0.0752020000
H -1.2407930000 1.3326200000 1.8238450000
C -1.2533840000 -1.2360550000 -0.4405050000
H -2.9918590000 0.0179870000 -0.1895050000
H -1.9993540000 0.3635900000 -1.6220090000
O -0.4186750000 -1.5839430000 -1.2551860000
C 2.7721930000 -1.1619340000 -0.0198850000
H 3.0392710000 -1.7211400000 0.8761310000
H 3.6652690000 -0.7422380000 -0.4889970000
H 2.3045890000 -1.8438770000 -0.7381550000
C -1.5952460000 -2.0986870000 0.7569660000
H -2.6730720000 -2.2743780000 0.8185250000
H -1.2909200000 -1.5820180000 1.6723240000
H -1.0657360000 -3.0477620000 0.6875710000
H 0.9773390000 2.6861650000 0.5071440000
H 0.3521190000 2.7483220000 -1.1251330000
