20
0 1
C -4.1704420000 -0.5444610000 0.0443680000
C -3.1844960000 -1.5262960000 -0.0461730000
C -1.8425280000 -1.1652080000 -0.0854960000
C -3.8175560000 0.8046250000 0.0939180000
C -2.4793870000 1.1730120000 0.0525780000
C -1.4870680000 0.1882560000 -0.0358970000
H -5.2157340000 -0.8305560000 0.0753690000
H -3.4621850000 -2.5728800000 -0.0871450000
H -1.0694310000 -1.9181450000 -0.1593050000
H -4.5859010000 1.5655040000 0.1635200000
H -2.1829100000 2.2136560000 0.0879330000
C -0.0764080000 0.6264860000 -0.0783440000
O 0.8029030000 -0.4134130000 -0.1507260000
P 2.4544010000 -0.2876170000 -0.0603690000
O 3.0865240000 -1.4664310000 -0.6268920000
O 0.2839350000 1.7863940000 -0.0624380000
O 2.7709320000 1.1087500000 -0.6974530000
H 2.0462800000 1.7472010000 -0.5124590000
O 2.6875890000 -0.0596060000 1.5023450000
H 2.9461210000 -0.8745660000 1.9492090000
