7
0 1
Si 1.6259290000 -0.4029100000 -0.0002450000
S -0.0588870000 0.9657860000 0.0087570000
S -1.6273300000 -0.4480630000 -0.0861470000
H -1.8074910000 -0.6079100000 1.2395420000
H 2.8245190000 0.4664910000 0.0203540000
H 1.6067820000 -1.2370340000 -1.2187610000
H 1.5926610000 -1.2643650000 1.2005340000
