27
0 1
O 0.0152750000 -0.2827720000 0.3462120000
Si -1.5691990000 0.1149680000 0.0362040000
C -2.1860860000 0.9054330000 1.6148580000
H -1.5973600000 1.7928080000 1.8636350000
H -2.1131050000 0.2090570000 2.4548370000
C -1.6754020000 1.3219570000 -1.4016150000
H -2.7143150000 1.6163560000 -1.5829740000
H -1.2940910000 0.8861020000 -2.3303190000
H -1.1027620000 2.2318140000 -1.1984880000
C -2.5635990000 -1.4280130000 -0.3709160000
H -2.5154370000 -2.1559820000 0.4443630000
H -2.2038250000 -1.9189320000 -1.2804960000
H -3.6172910000 -1.1774870000 -0.5318200000
H -3.2327780000 1.2114570000 1.5208480000
C 0.9305580000 -0.9115770000 -0.5456160000
C 2.2533730000 -1.1622570000 0.1721780000
H 1.0865110000 -0.2799370000 -1.4302810000
H 0.5222220000 -1.8690220000 -0.8958680000
C 2.9503400000 0.1020980000 0.6949950000
H 2.9180640000 -1.6964120000 -0.5193750000
H 2.0582370000 -1.8392300000 1.0106390000
C 3.4379840000 1.0558650000 -0.4008990000
H 3.8046850000 -0.2041780000 1.3085300000
H 2.2617910000 0.6276430000 1.3627510000
H 4.1266690000 0.5534580000 -1.0884370000
H 3.9669770000 1.9098650000 0.0309410000
H 2.6093840000 1.4542050000 -0.9929470000
