16
0 1
N -1.7631640000 0.9286170000 -0.6140160000
C 0.3524290000 -0.5341600000 0.4213090000
C 1.1506380000 0.7519930000 0.7909270000
C 1.2341120000 -0.6637620000 -0.8556660000
C 2.2577980000 0.3008410000 -0.1991310000
H 0.7454880000 -0.2023840000 -1.7173620000
H 1.5740140000 -1.6635520000 -1.1318560000
H 2.7049470000 1.0672050000 -0.8355710000
H 3.0575500000 -0.2425550000 0.3100770000
H 1.4217900000 0.8874520000 1.8399400000
H 0.6496260000 1.6551740000 0.4340210000
P -1.4873850000 -0.5536480000 0.2072550000
H 0.5809020000 -1.3407620000 1.1274660000
H -1.7905530000 -0.2091810000 1.5585120000
H -1.6992810000 1.8023030000 -0.1092850000
H -2.5614220000 0.9212250000 -1.2312960000
