26
0 1
C -0.3844830000 1.2126240000 -0.0028490000
C -1.7772150000 1.2062090000 -0.0057320000
C -2.4903370000 0.0028060000 -0.0065540000
C 0.3634930000 0.0310730000 -0.0013230000
C -0.3658490000 -1.1675510000 -0.0030440000
C -1.7534450000 -1.1907250000 -0.0064930000
H 0.1148620000 2.1730120000 -0.0006670000
H -2.3169790000 2.1484440000 -0.0116410000
N -3.8866210000 -0.0134250000 -0.0719560000
H -4.3376580000 0.8190580000 0.2788420000
H -4.3191290000 -0.8507910000 0.2903650000
H -2.2761970000 -2.1424940000 -0.0136550000
H 0.1579580000 -2.1172630000 -0.0011270000
C 1.9017200000 0.0032960000 0.0024900000
C 2.5096270000 1.4179070000 0.0022630000
H 2.2158150000 1.9856430000 -0.8848610000
H 3.6009780000 1.3495950000 0.0041800000
H 2.2129200000 1.9873650000 0.8873700000
C 2.4108700000 -0.7370480000 -1.2562850000
H 2.0758570000 -0.2316770000 -2.1661270000
H 2.0475320000 -1.7666890000 -1.2944170000
H 3.5051660000 -0.7686630000 -1.2660600000
C 2.4052310000 -0.7343610000 1.2650970000
H 2.0413060000 -1.7637930000 1.3039350000
H 2.0667940000 -0.2266610000 2.1724610000
H 3.4994540000 -0.7664970000 1.2796820000
