18
0 1
C 0.2253670000 0.6673140000 -0.3244390000
B -0.9650360000 -0.3307750000 -0.0078060000
O -2.0411650000 -0.5231550000 -0.8414940000
O -0.9708980000 -1.0083460000 1.1775710000
C 1.5861200000 0.1884230000 0.2180180000
C 2.0748630000 -1.1219210000 -0.4065170000
H 1.5099300000 0.0654570000 1.3036270000
H 2.3339310000 0.9727790000 0.0456910000
H 2.1608900000 -1.0356200000 -1.4949320000
H 1.3886980000 -1.9448450000 -0.1868060000
C -0.1298910000 2.0649960000 0.2379180000
H 0.3193280000 0.7701050000 -1.4168860000
H 0.6502730000 2.7944060000 -0.0027270000
H -0.2298470000 2.0325880000 1.3269310000
H -1.0733630000 2.4429400000 -0.1682670000
H 3.0583990000 -1.4026520000 -0.0196690000
H -1.9728400000 -0.0338590000 -1.6651400000
H -1.7624660000 -1.5482910000 1.2787060000
