21
0 1
C -0.1156920000 0.1372590000 -0.5069480000
N -0.2502430000 1.5727030000 -0.0261630000
P 1.5879060000 -0.4430910000 -0.0822420000
O 0.0429220000 1.7971690000 1.1493780000
O -0.6679280000 2.3983350000 -0.8087260000
O 2.6407470000 0.3353840000 -0.7383360000
O 1.5262730000 -1.9896170000 -0.4864140000
H -0.1883280000 0.2009620000 -1.5924490000
C -1.2499440000 -0.7118060000 0.0878150000
C -2.6543220000 -0.2763850000 -0.3496750000
H -1.1672970000 -0.6984810000 1.1776360000
H -1.0634930000 -1.7421410000 -0.2278760000
C -3.7408690000 -1.1962160000 0.2143450000
H -2.7075590000 -0.2679480000 -1.4440970000
H -2.8449130000 0.7519260000 -0.0264070000
H -3.6033090000 -2.2276010000 -0.1236560000
H -4.7335240000 -0.8704060000 -0.1048350000
H -3.7276650000 -1.1999850000 1.3081930000
H 2.2447630000 -2.2212510000 -1.0875880000
O 1.5828530000 -0.5528880000 1.5051760000
H 1.2904570000 0.2881910000 1.8959950000
