9
0 1
P 0.1248170000 -1.0333150000 -0.3605460000
Si 1.8739050000 0.3355460000 0.1958840000
N -1.2301270000 0.2101530000 -0.0071370000
O -1.0339060000 1.3522940000 -0.4032360000
O -2.2481820000 -0.1953250000 0.5189610000
H 0.0041420000 -1.6650890000 0.8989770000
H 2.1829140000 1.1881000000 -0.9665330000
H 3.0021170000 -0.5878700000 0.4614450000
H 1.5714880000 1.1401190000 1.3960830000
