24
0 1
C 0.5238720000 -0.3470310000 1.3124750000
Si -0.3471810000 1.3297820000 1.0616040000
C -1.5064900000 1.4392300000 -0.4864960000
H 0.6816920000 2.3373010000 0.7262890000
H -1.0659990000 1.7374130000 2.2795550000
O -1.5002810000 2.4093550000 -1.1827580000
O -2.3491020000 0.3767920000 -0.8833470000
C -2.6848740000 -0.5921940000 0.0235550000
O -2.4599120000 -0.4764810000 1.2022970000
C -3.3352190000 -1.7630040000 -0.6441640000
H -2.5483210000 -2.3404120000 -1.1376550000
H -4.0415700000 -1.4308050000 -1.4054740000
H -3.8265110000 -2.3832370000 0.1026000000
C 0.8534640000 -1.0125920000 0.0173210000
O 0.1823900000 -1.8309220000 -0.5382560000
O 1.9706480000 -0.5221100000 -0.6903930000
C 3.1958640000 -0.2350660000 -0.1220240000
C 4.0986100000 0.3763100000 -1.1562150000
H 3.6622120000 1.3086260000 -1.5220270000
H 4.1897460000 -0.2976010000 -2.0104140000
H 5.0756660000 0.5650920000 -0.7171290000
O 3.4792040000 -0.4757240000 1.0169500000
H -0.1484140000 -0.9990950000 1.8667170000
H 1.4270940000 -0.1554350000 1.8924320000
