16
0 1
C 0.2644160000 1.2058230000 -0.3310270000
C 1.6303350000 1.2136730000 -0.0801770000
C 2.3202360000 -0.0000120000 0.0466470000
C 1.6302970000 -1.2136440000 -0.0804870000
C 0.2643790000 -1.2056880000 -0.3313350000
C -0.4433440000 0.0000950000 -0.4593200000
H -0.2537880000 2.1538030000 -0.4292350000
H 2.1684480000 2.1483880000 0.0167460000
Si -2.2818620000 0.0001690000 -0.7910660000
H -0.2538540000 -2.1536270000 -0.4297850000
Cl -3.3512680000 -0.0002040000 0.9996680000
H 2.1683810000 -2.1484000000 0.0161980000
C 3.7284670000 -0.0000670000 0.3019320000
N 4.8651810000 -0.0001130000 0.5072090000
H -2.6682820000 -1.2215440000 -1.5208620000
H -2.6682650000 1.2221910000 -1.5203530000
