16
0 1
F -0.0704950000 2.1218330000 0.0000020000
O -2.5352410000 0.8364660000 -0.0000020000
O -2.3561580000 -1.5017370000 -0.0000010000
C 0.5567080000 -1.4554760000 -0.0000000000
H 0.0052350000 -2.3880460000 -0.0000010000
C 1.9641400000 0.9485220000 0.0000010000
H 2.4769850000 1.9020820000 0.0000020000
C 2.6515250000 -0.2622740000 0.0000010000
H 3.7354210000 -0.2611560000 0.0000010000
C -0.1758440000 -0.2553980000 -0.0000000000
C 1.9474480000 -1.4662260000 -0.0000000000
H 2.4834170000 -2.4080290000 -0.0000000000
C 0.5803240000 0.9143320000 0.0000010000
B -1.7484640000 -0.2786840000 0.0000000000
H -3.3155400000 -1.4182300000 -0.0000020000
H -2.0233600000 1.6515920000 -0.0000030000
