21
0 1
Si -1.9980440000 -0.9876100000 -0.1328270000
Si -2.5805510000 1.2851000000 -0.3914530000
C -0.4847220000 -1.2588750000 0.9934340000
H -1.7267350000 -1.5756920000 -1.4693630000
H -3.1590610000 -1.7112270000 0.4512590000
C 0.7684060000 -0.5707650000 0.5088440000
C 1.5865370000 -1.1655260000 -0.4602380000
C 1.1326170000 0.6905370000 0.9962530000
C 2.7301670000 -0.5221040000 -0.9255890000
C 3.0794610000 0.7336270000 -0.4328540000
C 2.2755240000 1.3370570000 0.5311950000
H 1.3265040000 -2.1447980000 -0.8496350000
H 3.3511230000 -1.0043900000 -1.6725470000
H 3.9704650000 1.2344480000 -0.7937970000
H 2.5396110000 2.3115750000 0.9269400000
H 0.5193780000 1.1671100000 1.7547830000
H -2.7241550000 1.9381600000 0.9344390000
H -3.8832620000 1.3814000000 -1.0961720000
H -0.3268250000 -2.3402800000 1.0635580000
H -0.7474580000 -0.9151210000 1.9985750000
H -1.5671920000 2.0302410000 -1.1743900000
