12
0 1
Si -1.8216470000 -0.2866710000 -0.0000010000
C 0.0092940000 0.2961480000 0.0000370000
O 0.2210460000 1.5017180000 -0.0000140000
N 1.0002300000 -0.6432780000 0.0000080000
C 2.4166180000 -0.3009090000 -0.0000130000
H 0.7351550000 -1.6154930000 -0.0000030000
H 2.4881410000 0.7853210000 0.0000010000
H 2.9158520000 -0.6928980000 -0.8904550000
H 2.9158850000 -0.6929220000 0.8904010000
H -2.4685360000 0.2578410000 -1.2112150000
H -2.4685740000 0.2578400000 1.2111920000
H -1.9403080000 -1.7685210000 -0.0000020000
