15
0 1
O 0.3989110000 0.0000010000 -0.8598440000
Cl 1.9518780000 0.0000000000 -0.0637350000
C -0.7525470000 -0.0000000000 0.0414930000
C -1.8926150000 0.0000010000 -0.9859620000
H -1.8386450000 0.8867010000 -1.6198660000
H -2.8523180000 0.0000010000 -0.4634500000
H -1.8386450000 -0.8866990000 -1.6198680000
C -0.7733010000 -1.2697270000 0.8915890000
H -0.7145640000 -2.1545380000 0.2543230000
H -1.6976950000 -1.3187690000 1.4727640000
H 0.0657420000 -1.2894850000 1.5894940000
C -0.7733010000 1.2697260000 0.8915910000
H -0.7145630000 2.1545380000 0.2543250000
H 0.0657430000 1.2894830000 1.5894960000
H -1.6976950000 1.3187680000 1.4727660000
