17
0 1
C -0.4268140000 0.2544890000 0.1286740000
C -1.9036870000 0.5646060000 0.2859010000
N -2.7501000000 -0.4784490000 -0.3035860000
H -2.0928320000 1.5739070000 -0.1120700000
H -2.1425170000 0.6073910000 1.3556040000
H -2.6654390000 -0.4670520000 -1.3156800000
H -3.7251570000 -0.3080430000 -0.0817780000
C 0.5007270000 1.2887930000 -0.0222420000
C 1.8635120000 1.0171210000 -0.1249670000
C 2.3170330000 -0.2993240000 -0.0856140000
C 1.3984760000 -1.3382710000 0.0561010000
C 0.0373600000 -1.0641770000 0.1636800000
H -0.6850740000 -1.8652350000 0.2629620000
H 0.1530900000 2.3168600000 -0.0631500000
H 2.5689090000 1.8324660000 -0.2430680000
H 3.3764940000 -0.5142820000 -0.1703160000
H 1.7435840000 -2.3662910000 0.0834080000
