13
0 2
C 1.5389540000 -0.5471700000 0.1531680000
C 0.6444000000 0.6004990000 -0.3240800000
H 2.5278220000 -0.4996700000 -0.3110410000
H 1.0995510000 -1.5186410000 -0.0893340000
H 1.6784840000 -0.5101230000 1.2383670000
C -0.7679260000 0.5746120000 0.2893620000
H 0.5562600000 0.5693570000 -1.4168010000
H 1.1180440000 1.5583320000 -0.0829450000
C -1.5970470000 -0.5892100000 -0.1327810000
H -1.2798670000 1.5128860000 0.0103390000
H -0.6944920000 0.6049390000 1.3840310000
H -2.3871470000 -0.9766590000 0.4985340000
H -1.5289350000 -0.9728100000 -1.1451650000
