17
0 1
C 2.8655300000 0.0303960000 0.7712570000
C 2.1938280000 -0.6039440000 -0.4502700000
H 2.4497990000 1.0181490000 0.9818700000
H 3.9389480000 0.1518930000 0.6055750000
H 2.7360210000 -0.5914960000 1.6628480000
C 0.6898760000 -0.8406280000 -0.2692350000
H 2.6651750000 -1.5666900000 -0.6719210000
H 2.3456950000 0.0326070000 -1.3258200000
C -0.1372080000 0.4361890000 -0.2634140000
H 0.4806880000 -1.4056660000 0.6462420000
H 0.2947090000 -1.4521510000 -1.0902130000
O 0.2633870000 1.4994280000 -0.6645260000
B -2.8052760000 -1.1355390000 -0.1264800000
P -1.8648390000 0.3393330000 0.4642830000
H -3.9795290000 -1.0411560000 -0.2815070000
H -2.2587380000 -2.1875590000 -0.2096080000
H -2.4530500000 1.5022620000 -0.0631270000
