18
0 1
C -1.6335910000 1.1801760000 -0.1036040000
C -0.2501130000 1.3518260000 -0.0821330000
C -2.2014930000 -0.0917670000 -0.0077950000
C -1.3402800000 -1.1909670000 0.1158570000
C 0.0382810000 -1.0252000000 0.1547080000
C 0.6010970000 0.2539210000 0.0635600000
P 2.4187950000 0.5379860000 0.0988350000
O 3.0082900000 -0.9887970000 -0.2709700000
H 3.4163090000 -0.9757660000 -1.1417470000
H -2.2782080000 2.0468970000 -0.2097200000
H 0.1661340000 2.3497590000 -0.1835240000
H -1.7594970000 -2.1901830000 0.1880790000
H 0.6911800000 -1.8856810000 0.2461000000
C -3.6971970000 -0.2887940000 -0.0569970000
H -4.2268090000 0.6645180000 -0.0069040000
H -4.0427060000 -0.9109100000 0.7737030000
H -3.9990860000 -0.7892780000 -0.9829650000
H 2.5842110000 0.3960630000 1.5006430000
