25
0 1
C -2.6045320000 0.4538060000 -1.0793730000
C -1.0941840000 0.2217180000 -1.2472170000
C -2.9676750000 0.7992340000 0.3713880000
H -3.1440460000 -0.4538920000 -1.3801720000
H -2.9365300000 1.2513900000 -1.7526790000
C -2.4535490000 -0.2681850000 1.3470930000
H -4.0516930000 0.9155340000 0.4738540000
H -2.5236550000 1.7687100000 0.6323170000
C -0.9428300000 -0.5010030000 1.1848000000
H -2.9841010000 -1.2117130000 1.1642110000
H -2.6786460000 0.0212670000 2.3792700000
C -0.5651130000 -0.8544960000 -0.2713690000
H -0.6143500000 -1.2928660000 1.8671520000
H -0.4096500000 0.4112460000 1.4828170000
H -0.5614820000 1.1634360000 -1.0680570000
H -0.8768910000 -0.0668560000 -2.2812320000
B 2.4523790000 0.4371330000 0.0755720000
O 3.7164820000 0.3350590000 0.5969540000
O 1.9424670000 1.6922930000 -0.0831250000
H 2.5649950000 2.3754130000 0.2001690000
H 4.0158430000 -0.5704130000 0.7112830000
Si 1.2994490000 -1.1548120000 -0.4760390000
H -1.0541280000 -1.8075810000 -0.5231250000
H 1.5892060000 -1.5055370000 -1.8950470000
H 1.7066640000 -2.3416880000 0.3333590000
