18
0 1
C -2.6256970000 0.3232520000 -0.3749330000
C -1.7741600000 1.3579150000 0.0063220000
C -0.4695490000 1.0810430000 0.4075600000
C -2.1595840000 -0.9893860000 -0.3502320000
C -0.8550040000 -1.2633250000 0.0532570000
C 0.0102550000 -0.2342860000 0.4433250000
H -3.6421720000 0.5371870000 -0.6852860000
H -2.1262340000 2.3837480000 -0.0058460000
H 0.1860340000 1.8936270000 0.7040580000
H -2.8141400000 -1.8037350000 -0.6414890000
H -0.5040260000 -2.2901770000 0.0734830000
C 1.4444330000 -0.5208790000 0.8506620000
B 2.3802470000 -0.4168870000 -0.4140560000
H 1.7669390000 0.1806990000 1.6256000000
H 1.5068080000 -1.5320740000 1.2686360000
O 3.2776310000 0.5983520000 -0.4831830000
H 3.7842730000 0.6026880000 -1.3009570000
H 2.2960740000 -1.2003520000 -1.3182270000
