14
0 1
N 1.8900450000 -0.1065650000 -0.1074900000
C 0.5350570000 0.0003380000 0.3962550000
H 1.8987620000 -0.0248240000 -1.1203420000
H 2.4741810000 0.6401330000 0.2566600000
C -0.4764960000 -1.0790060000 -0.0638240000
C -0.4776340000 1.0890000000 -0.0935370000
C -1.5877470000 0.0055490000 -0.0390770000
H -0.2551850000 1.3814880000 -1.1250420000
H -0.6006490000 1.9917120000 0.5099970000
H -2.3228430000 -0.0062020000 -0.8451370000
H -2.1188330000 0.0183140000 0.9157070000
H 0.5842590000 0.0154200000 1.4898860000
H -0.2551780000 -1.3978200000 -1.0875270000
H -0.5939130000 -1.9675460000 0.5593310000
