15
0 1
F 2.3787010000 -0.5853410000 0.3299980000
O 0.9207090000 -0.5533350000 0.6252360000
C 0.2925280000 0.0446850000 -0.5313040000
O 0.7697230000 1.3326190000 -0.7326850000
N -1.0778690000 0.0567530000 -0.2185130000
C -1.5517650000 0.9518290000 0.8335700000
H -0.9022710000 1.8230270000 0.8758860000
H -1.5738110000 0.4702150000 1.8194450000
H -2.5645420000 1.2836940000 0.5869620000
C -1.8218110000 -1.1810680000 -0.3871500000
H -1.4323970000 -1.7305140000 -1.2463960000
H -2.8716120000 -0.9443820000 -0.5827860000
H -1.7747600000 -1.8364190000 0.4929610000
H 0.4903450000 -0.6115520000 -1.3869170000
H 1.7286550000 1.2897860000 -0.6306450000
