19
0 1
C -0.8596720000 -0.4277320000 -0.2868860000
C -1.8344350000 -0.1403280000 -1.2494080000
H -1.5635330000 -0.1073070000 -2.2987940000
C -3.1507980000 0.1038220000 -0.8627440000
H -3.9005470000 0.3262910000 -1.6131530000
C -3.5001890000 0.0516860000 0.4834520000
H -4.5250520000 0.2364670000 0.7847290000
C -2.5335550000 -0.2407250000 1.4470190000
H -2.8060620000 -0.2800200000 2.4953860000
C -1.2178750000 -0.4758930000 1.0672160000
H -0.4719930000 -0.7061230000 1.8189170000
P 0.8446360000 -0.7206830000 -0.9041680000
Cl 1.4047620000 -2.4783540000 0.0829530000
C 1.7688860000 0.4987500000 0.2294980000
O 2.6217400000 0.1976120000 1.0175620000
C 1.4412210000 1.9933910000 0.0103140000
F 0.8617170000 2.1748210000 -1.2145760000
F 0.5518780000 2.3921030000 0.9605470000
H 2.3389150000 2.6119230000 0.0802340000
