18
0 2
Si 1.8313590000 -0.3453360000 -0.5572270000
C 0.0571480000 -0.2185920000 0.2311570000
O -0.8075300000 -0.4434620000 -0.8768300000
O -0.1954820000 1.0328590000 0.8501470000
C -2.2013420000 -0.5713670000 -0.5886170000
H -2.7165380000 -0.4880620000 -1.5455000000
H -2.5452910000 0.2242270000 0.0790170000
H -2.4366460000 -1.5442280000 -0.1440080000
C -0.1051310000 2.1733500000 0.0053420000
H -0.2925270000 3.0405590000 0.6381500000
H -0.8405940000 2.1388730000 -0.8034400000
H 0.8953830000 2.2632480000 -0.4407970000
C -0.1062920000 -1.2532460000 1.3470230000
H -0.0292630000 -2.2657970000 0.9463660000
H -1.0767140000 -1.1326270000 1.8369530000
H 0.6651220000 -1.1117960000 2.1056340000
H 2.0355870000 -1.7083180000 -1.1121490000
H 2.8602450000 -0.0774190000 0.4849810000
