23
0 1
C -0.4164600000 0.0146970000 -0.0333910000
C -1.1418540000 -1.1887260000 -0.0591120000
C -2.5344200000 -1.1961510000 -0.0216120000
C -3.2372020000 0.0054060000 0.0467250000
C -2.5403250000 1.2113490000 0.0734240000
C -1.1471680000 1.2120280000 0.0327050000
N 1.9317620000 -1.3864660000 -0.9895490000
H -3.0719140000 -2.1382340000 -0.0456690000
H -4.3214350000 0.0020930000 0.0763060000
H -3.0813640000 2.1503080000 0.1229410000
H -0.6262210000 2.1641270000 0.0478280000
H -0.6038350000 -2.1288740000 -0.1220620000
Si 1.4684830000 -0.0157890000 -0.0338780000
H 1.6076320000 -1.4678450000 -1.9434570000
H 2.8654880000 -1.7624070000 -0.9016330000
C 2.1484340000 -0.3160120000 1.6922590000
H 1.7395930000 -1.2358540000 2.1184440000
H 1.8883090000 0.5089920000 2.3619570000
H 3.2404320000 -0.4008670000 1.6841020000
C 2.1177470000 1.6380190000 -0.6650600000
H 1.8320710000 2.4693580000 -0.0124400000
H 1.7461470000 1.8596910000 -1.6700950000
H 3.2114910000 1.6221590000 -0.7107100000
