9
0 1
P -1.4178330000 0.3314410000 -0.0968740000
P 0.5626840000 -0.7333940000 0.1268410000
C 1.7001680000 0.7407790000 -0.0364980000
H 1.4308440000 1.4116170000 -0.8534820000
H 2.7177970000 0.3747150000 -0.1931160000
H 1.6906900000 1.3008140000 0.9013620000
H 0.5873370000 -1.1165710000 -1.2414320000
H -1.6301390000 0.4867650000 1.2995450000
H -2.1703060000 -0.8727240000 -0.1433850000
