12
0 1
C -0.5264650000 0.1994250000 0.7839600000
C 0.4950780000 0.9469290000 0.0025100000
C 1.7187370000 0.5152830000 -0.3145600000
Cl -1.9550820000 -0.2870780000 -0.2732700000
H -0.9687530000 0.8126540000 1.5673920000
H -0.1562640000 -0.7263490000 1.2141780000
H 2.3500960000 1.1996050000 -0.8773450000
H 0.1902930000 1.9352240000 -0.3289420000
C 2.3490810000 -0.8078420000 0.0024760000
H 1.6804680000 -1.4933850000 0.5239640000
H 3.2440490000 -0.6714200000 0.6195670000
H 2.6779180000 -1.2987660000 -0.9195330000
