13
0 1
C -2.6986690000 0.1389920000 0.0841230000
O -1.4468580000 0.6127440000 -0.2898810000
F -3.1351640000 -0.7966740000 -0.7537480000
F -3.5127810000 1.1832620000 0.0382680000
F -2.6839100000 -0.3536860000 1.3192730000
C -0.4079970000 -0.2685950000 -0.3231140000
O 0.6417810000 0.5302660000 -0.7167250000
O -0.4023490000 -1.4228780000 -0.0841060000
O 1.8086620000 -0.2908220000 -0.8831550000
C 2.7142440000 0.0737700000 0.1072420000
F 3.7558400000 -0.7192480000 -0.0901650000
F 3.0859260000 1.3464060000 -0.0002460000
F 2.2172710000 -0.1155570000 1.3289980000
