16
0 1
C 2.3895780000 0.0090800000 -0.0014160000
C 1.5247870000 1.0999910000 0.0030670000
C 0.1354190000 0.9408290000 -0.0007220000
C 1.8708310000 -1.2818690000 0.0015350000
C 0.4923720000 -1.4688810000 0.0218110000
C -0.3736550000 -0.3721360000 0.0169780000
H 3.4617310000 0.1689500000 -0.0074360000
H 1.9328500000 2.1054490000 -0.0032880000
C -0.7659630000 2.1474140000 -0.0229030000
H 2.5314660000 -2.1412420000 0.0022380000
H 0.0781390000 -2.4697590000 0.0508970000
S -2.1306820000 -0.7282410000 -0.0591020000
H -2.5385620000 0.1515960000 0.8716080000
H -0.1859170000 3.0617950000 -0.1573690000
H -1.3304370000 2.2503040000 0.9108530000
H -1.4985750000 2.0781960000 -0.8319810000
