16
0 1
C 2.2463160000 -0.0000020000 0.1090160000
C 1.5837560000 1.2116560000 -0.0132440000
C 0.2138110000 1.2092620000 -0.2619010000
C 1.5837500000 -1.2116570000 -0.0132510000
C 0.2138040000 -1.2092540000 -0.2619080000
C -0.4715210000 0.0000060000 -0.3837680000
F 3.5780640000 -0.0000060000 0.3499960000
H 2.1381020000 2.1367920000 0.0828210000
H -0.3283300000 2.1402920000 -0.3730760000
H 2.1380910000 -2.1367960000 0.0828100000
H -0.3283400000 -2.1402810000 -0.3730880000
O -1.8175470000 0.0000110000 -0.6730980000
Si -3.0811020000 -0.0000050000 0.4043670000
H -4.2993120000 -0.0000290000 -0.4247990000
H -3.0332570000 1.2046780000 1.2646660000
H -3.0332160000 -1.2046780000 1.2646770000
