15
0 1
C -2.8362000000 -0.8041020000 -0.0000520000
C -1.5605670000 0.0203140000 0.0000250000
S -0.0812670000 -1.0588850000 0.0001170000
O -1.5412050000 1.2222100000 0.0001220000
B 1.4349910000 -0.0152520000 0.0001930000
S 1.5750250000 1.7811390000 -0.0000750000
C -4.1023180000 0.0496570000 -0.0000670000
H -2.7990360000 -1.4663070000 0.8720470000
H -2.7989710000 -1.4662420000 -0.8721970000
H -4.1435590000 0.6925340000 0.8807740000
H -4.9859460000 -0.5919490000 -0.0001240000
H -4.1434930000 0.6925990000 -0.8808630000
S 2.9400620000 -1.0449890000 -0.0000810000
H 0.2513160000 2.0405400000 -0.0001420000
H 3.8277780000 -0.0340460000 -0.0002510000
