15
0 1
C -3.0190640000 -0.4077320000 -0.0313720000
C -1.7941860000 0.5095760000 0.0311460000
H -3.0242610000 -0.9976560000 -0.9528730000
H -3.9481580000 0.1674250000 0.0005990000
H -3.0322200000 -1.1077440000 0.8096230000
C -0.4675920000 -0.2613520000 -0.0154630000
H -1.8342410000 1.1107080000 0.9473800000
H -1.8278820000 1.2211170000 -0.8025490000
C 0.7507460000 0.6583160000 0.0553180000
H -0.4144980000 -0.8566470000 -0.9329150000
H -0.4320740000 -0.9744610000 0.8167600000
H 0.7474160000 1.2533200000 0.9709920000
H 0.7528390000 1.3589540000 -0.7840290000
S 2.3706560000 -0.2022570000 -0.0844080000
H 2.2631630000 -0.9317460000 1.0397720000
