22
0 1
C 2.3642820000 0.9281990000 -0.6750270000
C 1.0408970000 1.3334730000 -0.5187240000
C 2.8429160000 -0.2321460000 -0.0596320000
C 1.9485220000 -0.9778400000 0.7156010000
C 0.6254400000 -0.5734380000 0.8715180000
C 0.1371250000 0.5950010000 0.2600600000
H 3.0363110000 1.5229680000 -1.2861670000
H 0.7080620000 2.2404510000 -1.0132870000
B -2.8407200000 -0.4325960000 -0.2300580000
O -2.3055420000 -1.5693040000 -0.7738740000
O -4.1947610000 -0.3337820000 -0.1418690000
H 2.2923590000 -1.8846480000 1.2039020000
C 4.2851320000 -0.6530750000 -0.2027700000
H 4.7152310000 -0.2916240000 -1.1394400000
H 4.3882060000 -1.7404890000 -0.1782600000
H 4.8929850000 -0.2491640000 0.6143280000
H -0.0324300000 -1.1777750000 1.4909730000
H -4.6407070000 -1.1134540000 -0.4981940000
H -1.3433860000 -1.5540280000 -0.8107560000
Si -1.6728450000 1.0975350000 0.4443750000
H -1.9728810000 1.4080590000 1.8665540000
H -1.8837900000 2.3408450000 -0.3408160000
