14
0 1
C -1.3856420000 -0.0193760000 0.0020430000
C -0.8307160000 1.2583370000 -0.0031390000
C 0.5495760000 1.4055570000 -0.0087730000
C -0.5740390000 -1.1458210000 0.0013210000
C 0.8130010000 -1.0048090000 -0.0003730000
C 1.3655490000 0.2716780000 0.0006450000
H -1.4724800000 2.1296820000 -0.0072780000
H 1.0038910000 2.3885230000 -0.0184270000
H -1.0174640000 -2.1330970000 -0.0004640000
H 1.4568750000 -1.8709850000 -0.0067520000
O 2.7164700000 0.5426020000 0.0118790000
O 3.4901250000 -0.6720750000 -0.0998770000
H 4.0226660000 -0.5991300000 0.7048030000
Cl -3.1336830000 -0.2042710000 0.0048090000
