17
0 1
C 2.8540810000 0.3956170000 0.2277220000
C 1.9773770000 1.3051680000 -0.3624740000
C 0.6590070000 0.9383420000 -0.6210510000
C 2.4107120000 -0.8833240000 0.5567930000
C 1.0929590000 -1.2516250000 0.2941940000
C 0.2005810000 -0.3456950000 -0.2933490000
H 3.8809960000 0.6821340000 0.4258040000
H 2.3215640000 2.3002290000 -0.6224250000
H -0.0224030000 1.6490220000 -1.0727140000
H 3.0908220000 -1.5948970000 1.0115680000
H 0.7530840000 -2.2513360000 0.5433230000
N -2.3549990000 -0.0735950000 0.6806710000
O -2.3603220000 1.3670530000 0.5902750000
H -1.8221090000 1.6265740000 1.3467880000
P -1.5258350000 -0.8941470000 -0.5975190000
H -1.7837260000 -0.0218730000 -1.6919520000
H -3.3314400000 -0.3498060000 0.7244790000
