28
0 1
S -0.1985180000 -1.9512130000 -0.6478760000
S 0.9561520000 -1.4031490000 0.9968550000
C 2.5547850000 -0.8584710000 0.2521940000
C -1.2476280000 -0.4774040000 -1.0004300000
C -2.3100210000 -0.1847130000 0.0558630000
H -1.7115670000 -0.7331390000 -1.9600480000
H -0.5997120000 0.3846080000 -1.1687290000
C 2.5511700000 0.4856360000 -0.4752890000
H 2.8925420000 -1.6611570000 -0.4045890000
H 3.2292680000 -0.8339700000 1.1159940000
C 2.2750630000 1.7004300000 0.4163280000
H 1.8265540000 0.4470520000 -1.2962250000
H 3.5340490000 0.6047470000 -0.9502980000
C -3.1851550000 1.0239950000 -0.3041370000
H -1.8181440000 -0.0062060000 1.0179390000
H -2.9384600000 -1.0722850000 0.1869740000
C -4.2533120000 1.3202900000 0.7526830000
H -3.6687370000 0.8480120000 -1.2726790000
H -2.5484020000 1.9068720000 -0.4370790000
H -4.9269330000 0.4679620000 0.8832190000
H -4.8610980000 2.1847040000 0.4723790000
H -3.7985090000 1.5339130000 1.7246780000
C 2.2904200000 3.0225960000 -0.3558240000
H 3.0252610000 1.7353130000 1.2158820000
H 1.3076610000 1.5740940000 0.9126590000
H 3.2584600000 3.1910480000 -0.8379680000
H 2.0972590000 3.8712860000 0.3055700000
H 1.5264260000 3.0327850000 -1.1396680000
