12
0 1
Si 2.1648070000 0.0017120000 0.5463200000
Si 0.3619240000 -0.0030870000 -0.9782450000
B -1.4158290000 0.0000350000 0.0093200000
H 0.4981570000 -1.2076500000 -1.8367870000
H 0.4981790000 1.1960550000 -1.8443430000
H 2.1140480000 1.2049080000 1.4143340000
H 3.4683540000 -0.0004400000 -0.1634420000
O -1.9628540000 1.2095580000 0.3306890000
O -1.9629230000 -1.2074320000 0.3382120000
H 2.1141490000 -1.1960680000 1.4217980000
H -2.7908510000 1.1775240000 0.8251360000
H -2.7909170000 -1.1722730000 0.8324520000
