32
0 1
C 3.4444720000 -0.2770490000 1.5014640000
C 2.0957300000 -0.5463450000 1.2817660000
C 4.2899930000 -0.0070300000 0.4280840000
C 3.7853650000 0.0036990000 -0.8718340000
C 2.4375960000 -0.2516540000 -1.1004550000
C 1.5988440000 -0.5285330000 -0.0209350000
H 1.4218460000 -0.7461740000 2.1045390000
H 3.8326620000 -0.2813930000 2.5133940000
H 5.3403340000 0.1965200000 0.6028630000
H 4.4410450000 0.2146490000 -1.7087100000
H 2.0317920000 -0.2388520000 -2.1037950000
N 0.2069240000 -0.8101760000 -0.2612640000
N -0.2053520000 -1.9742670000 -0.9092370000
O 0.6823830000 -2.6929370000 -1.2750420000
P -1.0093850000 0.2241400000 0.3494290000
O -0.9660920000 0.3953780000 1.8056040000
O -0.7393870000 1.5154450000 -0.5241370000
C -1.2411090000 2.8198030000 -0.1106060000
C -0.4056450000 3.8794010000 -0.7972130000
H -1.1743270000 2.8883360000 0.9769320000
H -2.2912550000 2.8825320000 -0.4072250000
H 0.6405000000 3.8015960000 -0.4949770000
H -0.7731890000 4.8725290000 -0.5247220000
H -0.4631670000 3.7751800000 -1.8826160000
O -2.3561120000 -0.3452200000 -0.2486810000
C -3.1356990000 -1.3748030000 0.4307070000
C -4.5808130000 -1.2255070000 0.0047430000
H -3.0129000000 -1.2477200000 1.5080970000
H -2.7234690000 -2.3394080000 0.1298990000
H -4.9792660000 -0.2551930000 0.3085880000
H -5.1838610000 -2.0085590000 0.4725230000
H -4.6757160000 -1.3182620000 -1.0790040000
