15
0 1
F -2.4100980000 -0.0000000000 -0.0973160000
N -0.3548140000 1.2247670000 0.0409600000
N -0.3548140000 -1.2247670000 0.0409610000
C 1.0952440000 1.2730610000 0.1939020000
C 1.7249910000 0.0000000000 -0.3845470000
C 1.0952440000 -1.2730610000 0.1939010000
B -1.0569300000 0.0000000000 -0.0029940000
H -0.8488110000 2.1014530000 0.0593160000
H -0.8488110000 -2.1014530000 0.0593190000
H 1.4976730000 -2.1447600000 -0.3325710000
H 1.3829540000 -1.3782370000 1.2507150000
H 2.8009670000 0.0000000000 -0.1866560000
H 1.5854560000 0.0000010000 -1.4704330000
H 1.3829520000 1.3782350000 1.2507160000
H 1.4976740000 2.1447600000 -0.3325680000
