12
0 1
Si -0.8105700000 0.1638420000 0.4189900000
C 1.0474950000 -0.2436390000 0.4412870000
O 1.8470560000 0.8832920000 0.1621470000
H 1.3866500000 1.4081900000 -0.5065470000
O -1.6685840000 -1.1482250000 -0.0611510000
H -1.1799590000 -1.7422210000 -0.6426210000
O 1.1807690000 -1.2630010000 -0.5572220000
H 2.1215600000 -1.4533030000 -0.6583460000
O -0.8158040000 1.4183520000 -0.6602380000
H -1.3864650000 0.5854900000 1.7078550000
H -1.6339870000 1.8639400000 -0.8887830000
H 1.4077080000 -0.6173920000 1.4065770000
