8
0 2
O -2.1010670000 -0.1526210000 0.0789980000
P 0.4590630000 0.0126620000 -0.1125250000
O 1.3867630000 -0.6584560000 -1.0043130000
O -0.1023130000 1.4322240000 -0.4585060000
H -1.0684090000 1.4618320000 -0.3113100000
O 0.8980000000 0.1370640000 1.4070300000
H 1.5559070000 -0.5233310000 1.6599330000
O -1.0030630000 -0.8992650000 0.0191980000
