8
0 1
C 1.6061220000 -0.2098340000 -0.0199910000
O 0.4251390000 0.5856850000 0.0781260000
H 1.7980890000 -0.7541650000 0.9121220000
H 2.4354420000 0.4740980000 -0.2042880000
H 1.5435880000 -0.9296970000 -0.8446990000
P -1.0373460000 -0.1954750000 -0.0883160000
H -1.7968880000 0.9794130000 -0.3202620000
H -1.4578850000 -0.2640040000 1.2768070000
