18
0 1
C 1.5040290000 0.0798880000 0.0000000000
C -0.0000000000 0.3563350000 0.0000000000
C -0.8325190000 -0.9322900000 0.0000000000
H -0.2576360000 0.9587620000 -0.8784860000
H -0.2576360000 0.9587620000 0.8784860000
C -2.3441260000 -0.6752120000 0.0000000000
H -0.5691290000 -1.5363050000 0.8776360000
H -0.5691290000 -1.5363050000 -0.8776360000
C -3.1737930000 -1.9621510000 0.0000000000
H -2.6066090000 -0.0707710000 -0.8763910000
H -2.6066090000 -0.0707710000 0.8763910000
H -2.9587270000 -2.5719420000 -0.8830690000
H -4.2452860000 -1.7448840000 0.0000000000
H -2.9587270000 -2.5719420000 0.8830690000
S 2.4294320000 1.6760420000 0.0000000000
H 1.7855860000 -0.4900820000 -0.8875110000
H 1.7855860000 -0.4900820000 0.8875110000
H 3.6658540000 1.1494610000 0.0000000000
