10
0 1
B -0.4548950000 -0.6976240000 0.8612720000
B 0.4548950000 0.6976240000 0.8612720000
C 0.1390080000 1.8758590000 -0.0189100000
C -0.1390080000 -1.8758590000 -0.0189100000
C 0.1390080000 -2.8097030000 -0.7393260000
C -0.1390080000 2.8097030000 -0.7393260000
H -0.3745730000 3.6347750000 -1.3682680000
H 0.3745730000 -3.6347750000 -1.3682680000
H 1.3841110000 0.7882880000 1.6113230000
H -1.3841110000 -0.7882880000 1.6113230000
