22
0 1
C 1.9703730000 -1.1926440000 -0.3373920000
S 1.2700280000 0.3680920000 -0.9913090000
C 0.2649800000 0.9712460000 0.4327950000
C -0.2039230000 2.3913400000 0.1121870000
H -0.7895890000 2.7871620000 0.9441360000
H -0.8242410000 2.4158270000 -0.7862850000
H 0.6555520000 3.0451820000 -0.0569230000
S -1.0889210000 -0.1552480000 0.9675430000
H 0.9102960000 0.9966580000 1.3126450000
C -2.1940360000 -0.1757360000 -0.4970290000
C -3.2203350000 -1.2984760000 -0.3562030000
H -1.5692880000 -0.3248650000 -1.3799390000
H -2.6957350000 0.7900890000 -0.5816920000
H -2.7341960000 -2.2751400000 -0.3012440000
H -3.8913300000 -1.3001270000 -1.2197480000
H -3.8316630000 -1.1733060000 0.5412080000
C 3.0923140000 -1.0182550000 0.6833110000
H 2.3339040000 -1.7113260000 -1.2278160000
H 1.1428540000 -1.7779330000 0.0697130000
H 3.9146890000 -0.4315810000 0.2685150000
H 3.4837190000 -1.9956020000 0.9840740000
H 2.7410650000 -0.5153970000 1.5876110000
