14
0 1
C -0.4697790000 1.1772470000 -0.1457400000
C -1.8630900000 1.1473870000 -0.1321330000
C 0.2279320000 -0.0242470000 -0.0067730000
C -0.5111340000 -1.2003370000 0.1222010000
C -1.8994590000 -1.1182650000 0.1374040000
N -2.5760230000 0.0292500000 0.0147260000
H 0.0013950000 -2.1497500000 0.2077710000
H -2.4998020000 -2.0159870000 0.2508050000
C 1.7294960000 -0.1246190000 -0.0314610000
O 2.4170760000 1.0067240000 0.2630450000
H 1.8205030000 1.6897020000 0.5909360000
O 2.3103680000 -1.1395840000 -0.2961640000
H -2.4297060000 2.0666860000 -0.2484040000
H 0.0364180000 2.1244840000 -0.3002270000
