11
0 1
Si -2.2300340000 -0.0131830000 -0.0184110000
P 0.7518530000 -0.0329300000 0.1014410000
O 0.7903110000 -0.5320120000 1.4780140000
O 1.6936150000 -0.8275750000 -0.9182500000
H 1.8584250000 -1.7260230000 -0.6090050000
O 1.1889700000 1.4812930000 -0.1349890000
H 1.9665510000 1.7169380000 0.3846140000
O -0.6578790000 -0.0331250000 -0.5993010000
H -3.0720350000 0.2488490000 -1.1982780000
H -2.3802680000 1.0571830000 0.9852350000
H -2.5501410000 -1.3270770000 0.5697830000
