13
0 1
C -0.3190920000 -0.4864210000 -0.1774800000
B 1.1700490000 -0.0196790000 -0.0356110000
O 1.5460620000 1.2952730000 -0.0403050000
O 2.1945630000 -0.9142220000 0.1128230000
C -1.3822970000 0.2762570000 0.1045900000
H -0.5222430000 -1.5142740000 -0.4873980000
C -2.8202550000 -0.1386180000 0.0240780000
H -1.2215620000 1.3016220000 0.4445110000
H -2.9228980000 -1.1705870000 -0.3181450000
H -3.3764120000 0.5098930000 -0.6623760000
H -3.3090760000 -0.0481310000 1.0006500000
H 0.8177260000 1.8870930000 -0.2406370000
H 1.8890910000 -1.8229400000 0.1541780000
