15
0 1
Cl -2.0189190000 -0.3106560000 -0.4848440000
O -1.0202940000 -0.0366820000 0.9260790000
C 0.2348570000 0.5703230000 0.6094180000
O 0.1037640000 1.8403800000 0.0804300000
N 1.0313530000 -0.2780220000 -0.2373560000
C 1.1388560000 -1.6570540000 0.2417410000
H 0.1509370000 -2.0811920000 0.4036210000
H 1.7132700000 -1.7322070000 1.1809640000
H 1.6501890000 -2.2522670000 -0.5170600000
C 2.3514180000 0.2815710000 -0.5389960000
H 2.2593440000 1.3073860000 -0.8886380000
H 2.8157870000 -0.3145330000 -1.3269300000
H 3.0221990000 0.2738090000 0.3372980000
H 0.6254500000 0.6933730000 1.6353650000
H -0.1535610000 1.7343100000 -0.8458210000
