8
0 2
O -0.1341390000 1.4442040000 -0.0001420000
C 0.0881400000 0.2579010000 0.0004900000
S 1.7475460000 -0.3181330000 -0.0002850000
O -0.8212100000 -0.7158060000 0.0002890000
C -2.2050700000 -0.2832170000 0.0000660000
H -2.7861140000 -1.2013910000 -0.0000660000
H -2.4149810000 0.3081470000 -0.8913240000
H -2.4152720000 0.3080820000 0.8914310000
