20
0 1
Si -1.0147430000 -1.0062440000 -0.5216840000
Si 1.0542980000 -0.8996520000 0.6229470000
C 2.3745360000 0.1595440000 -0.2347610000
H 1.5638690000 -2.2917330000 0.7487640000
H 0.8398400000 -0.3862550000 2.0037340000
C -2.0141680000 0.6065310000 -0.5539550000
H -1.8350580000 -2.0679690000 0.1225910000
H -0.7543230000 -1.4417120000 -1.9212930000
C -2.4442360000 1.1307740000 0.8266280000
H -1.4307500000 1.3688210000 -1.0822780000
H -2.8986380000 0.4245790000 -1.1756520000
H -1.5818010000 1.3633210000 1.4574860000
H -3.0505450000 0.3943570000 1.3619070000
H -3.0405220000 2.0436100000 0.7372480000
C 2.0582300000 1.6620660000 -0.3223600000
H 2.5425640000 -0.2496690000 -1.2374420000
H 3.3134550000 0.0088720000 0.3106050000
H 1.1548860000 1.8521540000 -0.9091760000
H 2.8751710000 2.2138600000 -0.7966220000
H 1.9019170000 2.0968320000 0.6691430000
