18
0 1
Si -1.1801190000 -0.9722900000 0.0731480000
Si 1.1801190000 -0.9722900000 -0.0731480000
N 1.6485280000 0.6832810000 0.1235920000
H 1.6721090000 -1.4231810000 -1.4014490000
H 1.7672580000 -1.9270820000 0.9155150000
N -1.6485280000 0.6832810000 -0.1235930000
H -1.6721090000 -1.4231800000 1.4014490000
H -1.7672580000 -1.9270830000 -0.9155140000
C 3.0208240000 1.1716130000 0.0011800000
H 1.0811470000 1.2372350000 0.7509560000
H 3.5170810000 0.6597410000 -0.8278270000
H 3.6288530000 1.0109490000 0.9025350000
H 3.0291550000 2.2417540000 -0.2275150000
C -3.0208240000 1.1716130000 -0.0011800000
H -1.0811480000 1.2372340000 -0.7509590000
H -3.5170790000 0.6597420000 0.8278290000
H -3.6288540000 1.0109480000 -0.9025340000
H -3.0291550000 2.2417540000 0.2275150000
