7
0 1
F -1.5947370000 -0.7618030000 -0.0000090000
F -0.6395810000 1.2925670000 0.0000090000
B -0.4976840000 -0.0251800000 0.0000080000
C 0.9350360000 -0.6634960000 -0.0000060000
N 2.0206910000 0.0098560000 -0.0000020000
H 1.8101640000 1.0145320000 0.0000090000
H 1.0320610000 -1.7535250000 0.0000010000
