16
0 2
C 0.0000020000 -0.0012460000 0.0543630000
C -0.0000920000 1.3180530000 -0.7641140000
H 0.8843160000 1.9199780000 -0.5380470000
H -0.8845710000 1.9198660000 -0.5380260000
C -1.2611580000 -0.8132350000 -0.3037530000
H -2.1696280000 -0.2548170000 -0.0581720000
H -1.2879210000 -1.7579450000 0.2463460000
H -1.2872970000 -1.0421830000 -1.3736650000
H -0.0000910000 1.1034260000 -1.8387060000
C 1.2612550000 -0.8130760000 -0.3037780000
H 1.2873990000 -1.0420260000 -1.3736900000
H 1.2881500000 -1.7577800000 0.2463240000
H 2.1696590000 -0.2545420000 -0.0582210000
C -0.0000060000 0.3254820000 1.5188310000
H -0.9286400000 0.5350670000 2.0382770000
H 0.9286180000 0.5350810000 2.0382890000
