16
0 1
C -1.0700990000 -0.8044330000 0.6019730000
Si 0.6443520000 -0.9538540000 -0.2040470000
C 1.5048920000 0.6989410000 -0.3100850000
H 0.4657690000 -1.5276670000 -1.5628350000
H 1.4930910000 -1.8740600000 0.5943610000
C -2.0362120000 -0.0109950000 -0.2273060000
C -2.4744210000 1.2161390000 0.0486700000
C 2.6914230000 0.9539920000 0.2475270000
H -2.3767620000 -0.4915460000 -1.1432850000
H -2.1691710000 1.7421750000 0.9483500000
H -3.1579190000 1.7350800000 -0.6135070000
H 1.0109270000 1.5043830000 -0.8526540000
H 3.2392480000 0.1979950000 0.8037870000
H 3.1708020000 1.9268660000 0.1729630000
H -0.9466300000 -0.3560030000 1.5932080000
H -1.4437870000 -1.8251240000 0.7515970000
