13
0 1
P -1.4131910000 -0.1182840000 -0.0000270000
C 0.4236260000 0.0107010000 -0.3948230000
C 1.1001560000 1.2865080000 0.1182800000
H 1.0646950000 1.3351470000 1.2109800000
C 1.1416990000 -1.2529050000 0.1050310000
H 1.1147730000 -1.3145580000 1.1978960000
H 2.1933490000 -1.2414810000 -0.1977940000
H 0.6868800000 -2.1635390000 -0.2929280000
H 0.6163760000 2.1852980000 -0.2711890000
H 2.1537890000 1.3142050000 -0.1825070000
H 0.4618200000 0.0101840000 -1.4912130000
H -1.7709990000 1.2154850000 -0.3331290000
H -1.3157080000 0.1676910000 1.3893720000
