28
0 1
O 0.9543490000 1.2597160000 -0.6878700000
S -0.6399180000 1.7135030000 -0.3504450000
C -1.4136930000 0.0921170000 -0.2773250000
C 1.7227180000 0.7440100000 0.3502880000
O 1.3615040000 0.7033830000 1.4882060000
O -0.7907080000 -0.9294490000 -0.4000820000
C 3.0119580000 0.2235300000 -0.2184490000
C 4.2945260000 -1.5279180000 -0.1300670000
C 2.9450510000 -1.2166820000 -0.8313050000
H 2.9027590000 -1.2766570000 -1.9188360000
H 2.1129650000 -1.7865780000 -0.4157190000
C -2.8957050000 0.1849850000 -0.0226540000
C -3.8201520000 -0.7044860000 -0.9102160000
C -3.4336790000 -0.5916140000 1.2224130000
H -3.2243460000 1.2289350000 -0.0140280000
C 4.0811550000 -0.2862350000 0.7782670000
H 5.1435090000 -1.4018080000 -0.8057540000
H 3.6226180000 -0.5416740000 1.7344860000
H 4.9369570000 0.3661930000 0.9575000000
C -4.6261590000 -1.0808400000 0.3601330000
H -3.2600310000 -1.5537060000 -1.3044580000
H -4.9257290000 -2.1239190000 0.4698120000
H -5.5073720000 -0.4479220000 0.4865830000
H -3.6470440000 0.0010620000 2.1123850000
H 3.4044660000 0.9364560000 -0.9455470000
H -2.7562320000 -1.4061010000 1.4829110000
H -4.3447630000 -0.2046040000 -1.7253030000
H 4.3836400000 -2.4961150000 0.3645480000
