20
0 1
Cl -2.9341690000 -1.0041140000 0.1148010000
Cl 0.9853770000 2.6230540000 -0.2982570000
O -1.8952560000 1.8773200000 0.3609630000
O -0.2406960000 -2.2989370000 -0.6739650000
N -1.3757140000 -0.3596470000 -0.1017400000
N 0.2885190000 1.0881290000 0.0628600000
C -1.1001920000 1.0176290000 0.1347290000
C -0.2685800000 -1.1204820000 -0.4537170000
C 0.9011310000 -0.1200010000 -0.5082730000
H 1.1274910000 0.0446130000 -1.5696650000
C 2.1777440000 -0.5664490000 0.2327480000
H 2.8208480000 0.3217210000 0.2412270000
C 1.8974450000 -0.9665800000 1.6861360000
H 2.8365180000 -1.1548810000 2.2114580000
H 1.3012110000 -1.8820210000 1.7367520000
H 1.3686300000 -0.1756750000 2.2231320000
C 2.9061370000 -1.6704240000 -0.5460100000
H 3.8484710000 -1.9160740000 -0.0505690000
H 2.3018010000 -2.5769430000 -0.6050230000
H 3.1403640000 -1.3512920000 -1.5660640000
