11
0 1
Si -1.3986600000 0.9180180000 0.1209270000
C 0.4066610000 0.7609600000 -0.3862860000
C 1.2124390000 -0.2216720000 0.4446660000
H 0.8467960000 -1.2415390000 0.3448810000
H 1.2375470000 0.0494150000 1.4990230000
Cl 2.9606660000 -0.2778490000 -0.0805890000
Cl -2.3658310000 -0.9186140000 -0.0911490000
H 0.8409380000 1.7650870000 -0.3086590000
H 0.4439590000 0.4825380000 -1.4439850000
H -2.0857930000 1.8869910000 -0.7536930000
H -1.5290020000 1.3093810000 1.5387170000
