8
0 2
P -0.6846460000 -0.8176390000 -0.2241150000
C -1.9597550000 0.4420490000 0.1927030000
H -2.9395010000 0.0103110000 -0.0220010000
H -1.8262520000 1.3467330000 -0.4050450000
H -1.9096820000 0.7085370000 1.2517660000
N 0.6815650000 0.1220700000 0.4508810000
F 0.8199550000 1.3350540000 -0.2904680000
F 1.8392320000 -0.5914750000 0.0932030000
