28
0 2
C 0.4296440000 1.1296710000 0.4870480000
C 1.4079180000 -0.0455370000 0.3212400000
C 0.8247310000 -1.3921310000 0.7590290000
C -0.6823880000 -1.5611360000 0.6654330000
C -1.4913500000 -0.5666590000 -0.1958690000
H -1.0314720000 -1.5204820000 1.7039420000
H -0.8783260000 -2.5831190000 0.3335360000
N -0.8602820000 0.7951060000 -0.1847090000
C 0.1870190000 1.3520250000 2.0012540000
H -0.1456950000 0.4501800000 2.5183850000
H -0.5817870000 2.1170110000 2.1215190000
H 1.1016530000 1.7018050000 2.4865840000
C 0.9851630000 2.4225090000 -0.1206220000
H 1.0790640000 2.3425340000 -1.2018570000
H 1.9702070000 2.6267650000 0.3066950000
H 0.3196060000 3.2540550000 0.1022230000
C -2.9115800000 -0.4389000000 0.3831640000
H -2.8832600000 -0.0648830000 1.4098770000
H -3.4001110000 -1.4167860000 0.3843820000
H -3.5005890000 0.2524150000 -0.2175550000
C -1.5752700000 -1.0332770000 -1.6615540000
H -0.5861440000 -1.2119200000 -2.0841590000
H -2.0730970000 -0.2657220000 -2.2554140000
H -2.1549420000 -1.9579770000 -1.7256070000
O -1.5562950000 1.7543770000 -0.6582270000
O 1.5335990000 -2.2509930000 1.2208110000
Cl 1.9768580000 -0.2734620000 -1.4009110000
H 2.3185350000 0.1327650000 0.8904820000
