17
0 1
C -1.0713580000 0.1293350000 -0.0051060000
N -1.2705640000 1.4789570000 0.0289590000
C -0.2129170000 2.2653530000 0.0366590000
N 1.0908050000 1.8944260000 0.0057190000
C 1.2617610000 0.5920950000 -0.0464160000
C 0.2153540000 -0.3582860000 -0.0548000000
N 0.7792730000 -1.6355410000 -0.1485400000
C 2.2234050000 -1.5079400000 0.1315080000
N 2.4580760000 -0.0831330000 -0.1141180000
H 2.8086060000 -2.1294460000 -0.5518050000
H 2.4724480000 -1.7929640000 1.1691920000
H -0.3971920000 3.3342290000 0.0760040000
P -2.6126640000 -0.8724870000 -0.1022020000
H 0.3036930000 -2.3901580000 0.3260790000
H 3.3047520000 0.3634570000 0.2024130000
H -3.1277050000 -0.5027650000 1.1658210000
H -2.0752390000 -2.1013530000 0.3701300000
