21
0 1
C -1.9316890000 1.7333330000 0.0152750000
P -1.5945990000 0.0180840000 0.6785350000
H -2.1337470000 1.7491420000 -1.0587720000
H -1.0804970000 2.3844840000 0.2238320000
H -2.7980530000 2.1435790000 0.5409320000
C -3.0913660000 -0.8807130000 0.0069140000
H -3.9765250000 -0.5292540000 0.5441390000
H -2.9878150000 -1.9505640000 0.1986800000
H -3.2485980000 -0.7257560000 -1.0637290000
Si -0.0539210000 -0.7094740000 -0.8485940000
P 2.1328110000 -0.2117670000 -0.4516860000
C 2.3237560000 -0.9062880000 1.2716520000
H 1.5768220000 -0.5356010000 1.9771790000
H 3.3191010000 -0.6457360000 1.6411340000
H 2.2610530000 -1.9959100000 1.2295640000
C 2.0510070000 1.6159580000 -0.0707700000
H 3.0545560000 1.9571580000 0.1963310000
H 1.3730060000 1.8601820000 0.7503610000
H 1.7439710000 2.1636110000 -0.9647010000
H -0.3944130000 -0.2171770000 -2.2131540000
H -0.1373880000 -2.1940250000 -0.8626510000
