8
0 1
Si -1.7552650000 -0.0000010000 -0.0705960000
C 0.0644640000 -0.0000000000 0.4984710000
Cl 0.8995440000 1.4907710000 -0.0877720000
Cl 0.8995460000 -1.4907700000 -0.0877720000
H 0.1809840000 0.0000000000 1.5789870000
H -1.7774440000 -0.0000010000 -1.5446780000
H -2.4005770000 1.2134410000 0.4737390000
H -2.4005750000 -1.2134440000 0.4737380000
