17
0 1
Si 2.0347100000 -0.2818020000 -0.2574930000
C 0.5906330000 0.0832100000 0.9036260000
B -0.7082430000 0.5778480000 0.1543120000
H 1.6893670000 -1.3664050000 -1.2096140000
H 3.2283250000 -0.7105100000 0.5113830000
O -1.6863560000 -0.2749480000 -0.2625160000
C -0.9426740000 2.1044850000 -0.1634510000
H 2.3947970000 0.9217620000 -1.0442080000
H -0.0526810000 2.5776720000 -0.5930450000
H -1.1487770000 2.6493740000 0.7673020000
H -1.7862710000 2.2682180000 -0.8375850000
C -1.6681760000 -1.6820190000 -0.0376790000
H -2.5495080000 -2.0998880000 -0.5247920000
H -1.7143920000 -1.9127480000 1.0310590000
H -0.7747530000 -2.1454000000 -0.4655840000
H 0.9521220000 0.8622030000 1.5847990000
H 0.4292080000 -0.8227590000 1.4987770000
