14
0 1
P 0.7623920000 -0.0320990000 -0.6190090000
B -1.0956380000 0.0126010000 -0.0559190000
O -1.7552800000 -1.1742630000 0.0587290000
O -1.8071840000 1.1664860000 0.1528840000
C 1.3878180000 -1.4695150000 0.3877080000
H 1.2629030000 -1.3251110000 1.4636410000
H 2.4448900000 -1.6374510000 0.1707370000
C 1.4630190000 1.4192110000 0.3295170000
H 2.5493140000 1.4262620000 0.2147530000
H 1.2263690000 1.4027550000 1.3967840000
H 1.0978630000 2.3556380000 -0.1028920000
H 0.8312490000 -2.3602770000 0.0915230000
H -2.6893540000 -1.0479930000 0.2660430000
H -1.2862380000 1.9687090000 0.0678830000
