19
0 1
C 1.3465690000 -1.2056760000 0.0159720000
C -0.0416700000 -1.1817380000 0.0074670000
C 2.0333610000 0.0043070000 -0.0007190000
C 1.3824900000 1.2307410000 -0.0272140000
C -0.0087040000 1.2440700000 -0.0368870000
C -0.7224960000 0.0419300000 -0.0205560000
H -0.5509810000 2.1810090000 -0.0600970000
H 1.9018890000 -2.1327110000 0.0355570000
H -0.5949610000 -2.1123370000 0.0202090000
P -2.5224910000 0.1241800000 -0.0127940000
O -3.0700240000 1.4853060000 0.0168810000
O -3.0152760000 -0.8031830000 1.2127530000
N 3.5176230000 -0.0177960000 0.0105390000
O 4.0646820000 -1.1108910000 0.0333270000
O 4.0976130000 1.0579850000 -0.0031140000
H 1.9620430000 2.1429400000 -0.0408560000
H -3.2769210000 -0.2695590000 1.9730940000
O -2.8703520000 -0.8125800000 -1.2602000000
H -3.8175060000 -0.8823650000 -1.4353190000
