14
0 1
C 1.8278840000 0.0556480000 0.0755000000
N -0.9997630000 -0.1138230000 -0.2036230000
C -1.8563790000 -0.2157500000 0.9775540000
H -1.7764970000 -1.2145240000 1.4097580000
H -2.9006540000 -0.0502120000 0.6905760000
H -1.5918540000 0.5176000000 1.7513000000
C -1.0772160000 1.1758030000 -0.8895080000
H -2.1279440000 1.4289790000 -1.0644850000
H -0.5807560000 1.1105450000 -1.8596550000
H -0.6103420000 1.9835990000 -0.3138760000
O 1.7513350000 1.0728110000 0.7205070000
P 0.3843460000 -1.0825340000 -0.2639640000
H 2.8114470000 -0.3145290000 -0.3112860000
H 0.6333350000 -1.1033850000 -1.6628470000
