20
0 1
Si 0.9689410000 1.6352040000 0.6762360000
Si -0.9690210000 1.6352250000 -0.6761930000
C 1.6789040000 -0.1479410000 0.5533390000
O 1.3302130000 -1.0520380000 1.2742230000
H 0.6208500000 1.8650950000 2.0938330000
H 1.9441900000 2.6473030000 0.2118310000
O 2.5400480000 -0.2956040000 -0.4750030000
C 3.0073900000 -1.6421430000 -0.7229350000
H 3.6781910000 -1.5625920000 -1.5747080000
H 2.1629650000 -2.2924430000 -0.9538130000
H 3.5341280000 -2.0279770000 0.1505620000
C -1.6789650000 -0.1479350000 -0.5533950000
H -0.6209340000 1.8651960000 -2.0937780000
H -1.9442850000 2.6472840000 -0.2117340000
O -1.3301890000 -1.0520100000 -1.2742670000
O -2.5400220000 -0.2956890000 0.4750050000
C -3.0072570000 -1.6422680000 0.7229260000
H -2.1627720000 -2.2925210000 0.9537190000
H -3.5340360000 -2.0281070000 -0.1505450000
H -3.6779990000 -1.5627910000 1.5747530000
