20
0 1
C -3.2031170000 0.3090580000 -0.7505420000
C -1.8830450000 0.9571940000 -0.3275050000
H -3.1164430000 -0.1364100000 -1.7455750000
H -4.0022630000 1.0537040000 -0.7851630000
H -3.5048010000 -0.4808300000 -0.0605110000
C -0.6744050000 0.0128760000 -0.3147620000
H -1.9950700000 1.4241610000 0.6589530000
H -1.6494380000 1.7723140000 -1.0244090000
C 0.6648680000 0.7566270000 -0.1282740000
C 1.8559940000 -0.1222850000 -0.5809690000
O 1.7828280000 -0.9044460000 -1.4909420000
O 2.9815550000 0.1130900000 0.1000040000
N 0.9489490000 1.3096630000 1.1993370000
S -0.8444400000 -1.3743740000 0.9046970000
H -0.6064580000 -0.5074960000 -1.2724950000
H 0.6672230000 1.5979000000 -0.8334910000
H 2.7315990000 0.7626960000 0.7929010000
H 0.6510880000 0.6582820000 1.9215880000
H 0.4906600000 2.1993120000 1.3542060000
H -1.4745480000 -0.6712680000 1.8632960000
