13
0 1
Si -1.7340780000 -0.0944310000 0.0345330000
C 0.0174130000 0.6082820000 -0.0935270000
H -1.8791520000 -1.2334050000 -0.9071020000
H -2.7286060000 0.9441890000 -0.3315670000
H -2.0135900000 -0.5737460000 1.4066240000
N 1.0040280000 -0.4644900000 0.0442070000
C 2.3864820000 0.0044080000 0.0579400000
H 0.8834100000 -1.1335460000 -0.7087690000
H 2.5579640000 0.6055640000 0.9556830000
H 2.6584100000 0.6223380000 -0.8157010000
H 3.0633280000 -0.8525640000 0.0994650000
H 0.1507940000 1.3110330000 0.7382790000
H 0.1329740000 1.2074540000 -1.0162960000
