15
0 1
C -1.8503320000 0.8876380000 0.0000020000
C -2.6800130000 -0.2260310000 0.0000500000
C -2.1278190000 -1.5050670000 0.0000700000
C 1.5715300000 -0.9019370000 -0.0000130000
O 1.9669820000 -2.0447630000 -0.0003270000
O 2.4203090000 0.1416020000 0.0003860000
H 3.3103390000 -0.2418960000 0.0003000000
C -0.4629390000 0.7383380000 -0.0000090000
C -0.7503380000 -1.6503490000 0.0000410000
C 0.1160930000 -0.5441030000 0.0000160000
H -2.7656530000 -2.3805580000 0.0001000000
H -0.2928170000 -2.6309950000 0.0000340000
H -3.7553200000 -0.0894780000 0.0000670000
H -2.2672810000 1.8860320000 -0.0000310000
Cl 0.4573720000 2.2288970000 -0.0001110000
