13
0 2
Si 0.6801770000 -0.7037950000 0.1204900000
C -1.0985610000 -0.4433730000 -0.4841770000
C -1.8712400000 0.6648870000 0.2602070000
H -1.6297240000 -1.3965800000 -0.3870600000
H -1.0692820000 -0.2241750000 -1.5576300000
H -1.9358030000 0.4557930000 1.3316360000
H -2.8938550000 0.7573580000 -0.1199470000
C 1.7632580000 0.8243250000 -0.1301260000
H 2.7822810000 0.6386720000 0.2185360000
H 1.3700040000 1.6809520000 0.4291690000
H 1.8139340000 1.1043180000 -1.1857450000
H -1.3901410000 1.6398870000 0.1433420000
H 0.6693740000 -1.0781370000 1.5654170000
