19
0 1
C 0.2308950000 0.0612660000 -0.0197120000
C -0.4316830000 -1.1485990000 -0.2583070000
C -1.8235170000 -1.2062720000 -0.2492780000
C -2.5776070000 -0.0641550000 0.0007900000
C -1.9223810000 1.1402440000 0.2507690000
C -0.5336140000 1.2033240000 0.2501180000
B 2.3641820000 1.2411610000 -0.5341490000
H -2.3165290000 -2.1523230000 -0.4434150000
H -3.6602090000 -0.1121210000 0.0093090000
H -2.4944060000 2.0366520000 0.4627810000
H -0.0322960000 2.1369570000 0.4691890000
H 0.1325910000 -2.0478130000 -0.4687120000
N 1.6599580000 0.1381540000 -0.0346280000
C 2.3747150000 -1.0477230000 0.4599730000
H 2.3148190000 -1.8827340000 -0.2443430000
H 1.9600850000 -1.3742130000 1.4173880000
H 3.4235970000 -0.7910620000 0.5919500000
H 1.7763480000 2.1610070000 -1.0035110000
H 3.5545320000 1.2242590000 -0.4836190000
