13
0 1
F -1.6188130000 -1.4486920000 0.0005020000
F -2.1641950000 0.7393700000 0.0007700000
B -1.2136430000 -0.1937450000 -0.0009350000
C 0.3022740000 0.2163630000 -0.0004540000
N 1.1213960000 -0.7682400000 -0.0003900000
C 2.5557380000 -0.5543160000 -0.0000310000
H 2.9735530000 -1.0627140000 0.8748640000
H 2.8897950000 0.4889570000 0.0001740000
H 2.9739640000 -1.0625020000 -0.8748530000
C 0.6664490000 1.6943150000 -0.0001700000
H -0.2330220000 2.3091990000 -0.0003300000
H 1.2574600000 1.9597070000 -0.8818660000
H 1.2569960000 1.9594830000 0.8819050000
