13
0 1
C -1.5855300000 0.0854530000 0.7235430000
S -0.2999040000 1.0570460000 -0.1720860000
S 1.1524510000 -0.3495900000 -0.6584780000
C 2.2389360000 -0.3548560000 0.8151920000
H 3.0646480000 -1.0289450000 0.5739960000
H 1.7137080000 -0.7312870000 1.6923710000
H 2.6287990000 0.6443000000 1.0036050000
C -2.3353830000 -0.9207260000 -0.1396560000
H -2.2571350000 0.8634550000 1.1014610000
H -1.1190500000 -0.3894970000 1.5886080000
H -2.8349340000 -0.4253780000 -0.9750570000
H -3.0924060000 -1.4414470000 0.4555880000
H -1.6525210000 -1.6697160000 -0.5460170000
