22
0 1
B -2.2088360000 -0.0000730000 0.1584840000
C 0.3330290000 0.0002290000 -0.5631640000
C 1.0189880000 1.1995840000 -0.3287240000
C 1.0189440000 -1.1993110000 -0.3295410000
C 2.3394000000 -1.2022380000 0.1148150000
C 3.0069770000 -0.0001270000 0.3397770000
C 2.3394430000 1.2021610000 0.1156340000
H 4.0357920000 -0.0002620000 0.6817130000
H 2.8487990000 2.1453050000 0.2822790000
H 0.5112820000 2.1431470000 -0.5039060000
H 0.5112050000 -2.1427360000 -0.5053680000
H 2.8487220000 -2.1455140000 0.2808180000
N -1.8010740000 -0.0007190000 1.4934200000
C -3.7477170000 0.0001810000 -0.2147630000
H -4.0027600000 -0.8735120000 -0.8264400000
H -4.0026880000 0.8745440000 -0.8255120000
H -4.4146440000 -0.0002510000 0.6533480000
C -1.1093780000 0.0004050000 -1.0047590000
H -1.3032860000 0.8704250000 -1.6456450000
H -1.3032860000 -0.8691040000 -1.6463380000
H -2.4467900000 -0.0010510000 2.2675600000
H -0.8287710000 -0.0008930000 1.7654880000
