12
0 1
Si -0.0194020000 -1.1832560000 -0.5834520000
Si 0.0194020000 1.1832560000 -0.5834520000
N 0.0194020000 -1.6182850000 1.0965180000
H 0.6846800000 -1.1440460000 1.6923230000
H -0.0857570000 -2.5842270000 1.3755310000
N -0.0194020000 1.6182850000 1.0965180000
H -0.6846800000 1.1440460000 1.6923230000
H 0.0857570000 2.5842270000 1.3755310000
H 1.0874050000 -1.7289730000 -1.4230930000
H -1.2760760000 -1.7317350000 -1.1520550000
H -1.0874050000 1.7289730000 -1.4230930000
H 1.2760760000 1.7317350000 -1.1520550000
