7
0 2
C -0.0030850000 1.7464490000 -0.1598030000
C 0.0230340000 0.4134370000 0.4285770000
H 0.2474830000 1.8803310000 -1.2028180000
Cl -1.4876860000 -0.5364440000 -0.0768440000
Cl 1.4915700000 -0.5112760000 -0.0600450000
H -0.4241900000 2.5678500000 0.4049320000
H -0.0090130000 0.4037490000 1.5123430000
