18
0 1
B 1.3299650000 0.4850730000 -0.1221660000
C -0.2081900000 0.1805100000 -0.0585110000
C -1.1234220000 1.1742770000 0.3337750000
C -0.7296000000 -1.0838730000 -0.3835880000
C -2.0975680000 -1.3394950000 -0.3380260000
C -2.9824130000 -0.3366410000 0.0532440000
C -2.4911000000 0.9222110000 0.3944470000
H -4.0475060000 -0.5360190000 0.0969370000
H -3.1734390000 1.7043800000 0.7093740000
H -0.7573300000 2.1562650000 0.6184650000
H -0.0560430000 -1.8776010000 -0.6908890000
H -2.4735760000 -2.3214880000 -0.6036840000
N 1.7769110000 1.7511320000 -0.5114990000
P 2.6243010000 -0.9364310000 0.2190050000
H 1.1469970000 2.4698150000 -0.8379440000
H 2.7468280000 2.0235540000 -0.5308890000
H 2.2262010000 -1.2304680000 1.5461410000
H 3.7289120000 -0.1272000000 0.5906860000
