7
0 2
C -0.5423660000 0.1329870000 0.0060540000
Si 1.3658940000 -0.0484250000 -0.0899090000
O -1.0524080000 1.2201430000 0.0151660000
O -1.3182680000 -0.9890690000 0.0053310000
H -0.7635480000 -1.7778940000 0.0447410000
H 1.8444270000 -1.3245040000 0.5049970000
H 2.0162110000 1.1338330000 0.5086920000
