27
0 1
O -0.3879230000 -0.0288980000 0.1912540000
C -1.8284970000 0.0670740000 0.1682680000
C -2.2278900000 1.3482210000 -0.5742190000
H -1.9028670000 1.3139360000 -1.6170390000
H -1.7667980000 2.2175050000 -0.0998080000
C -2.4318000000 -1.1699150000 -0.5085810000
H -3.5238650000 -1.1322200000 -0.4729590000
H -2.1026720000 -2.0815890000 -0.0044250000
H -2.1346780000 -1.2317440000 -1.5595600000
C -2.2541770000 0.1381000000 1.6370840000
H -1.7836540000 0.9960270000 2.1222160000
H -1.9416380000 -0.7659830000 2.1644340000
H -3.3393900000 0.2376830000 1.7257860000
H -3.3131860000 1.4816320000 -0.5608810000
Si 0.7348710000 -0.4210240000 -0.9524700000
C 2.4249640000 -0.0618940000 -0.2041730000
C 2.7030230000 -0.9351930000 1.0338560000
H 1.9886970000 -0.7179250000 1.8330050000
H 3.7085160000 -0.7473960000 1.4262860000
H 2.6309930000 -2.0024830000 0.8048900000
C 2.6115330000 1.4343580000 0.1090760000
H 3.1447890000 -0.3405520000 -0.9883000000
H 1.8933140000 1.7669500000 0.8638890000
H 2.4732240000 2.0579070000 -0.7791070000
H 3.6168500000 1.6299010000 0.4980900000
H 0.5430500000 0.3771330000 -2.1943090000
H 0.6415700000 -1.8577740000 -1.3255190000
