29
0 1
C 2.8237550000 0.9710820000 0.2799310000
C 4.0087080000 0.3669560000 0.6887300000
C 4.3067430000 -0.9357120000 0.2883360000
C 3.4088600000 -1.6312910000 -0.5167890000
C 2.2184900000 -1.0261560000 -0.9185700000
C 1.9165460000 0.2807520000 -0.5310380000
C 0.6461060000 0.9592850000 -1.0074590000
O -0.0000000000 1.7336990000 -0.0000000000
H 3.6294780000 -2.6470050000 -0.8261300000
H 1.5164000000 -1.5763070000 -1.5375110000
H 2.5856400000 1.9810700000 0.5942330000
H -0.0413120000 0.2148850000 -1.4282620000
H 0.8805580000 1.6757210000 -1.7999150000
C -0.6461060000 0.9592850000 1.0074590000
H 4.7031370000 0.9126800000 1.3181850000
H 5.2309610000 -1.4053400000 0.6059880000
C -1.9165460000 0.2807520000 0.5310380000
H -0.8805580000 1.6757220000 1.7999150000
H 0.0413120000 0.2148860000 1.4282620000
C -2.8237550000 0.9710820000 -0.2799310000
C -4.0087080000 0.3669560000 -0.6887300000
C -4.3067430000 -0.9357120000 -0.2883360000
C -3.4088600000 -1.6312910000 0.5167890000
C -2.2184900000 -1.0261560000 0.9185700000
H -1.5163990000 -1.5763070000 1.5375110000
H -5.2309610000 -1.4053400000 -0.6059880000
H -3.6294780000 -2.6470050000 0.8261310000
H -2.5856410000 1.9810700000 -0.5942330000
H -4.7031380000 0.9126800000 -1.3181850000
