15
0 2
P 0.0000020000 1.4018740000 0.0001720000
S -1.7037370000 -0.0414560000 0.1689170000
S 1.7037650000 -0.0413880000 -0.1689170000
O -1.3492740000 -1.0671500000 1.1394610000
O -2.8534910000 0.8163740000 0.3930690000
O 1.3494890000 -1.0666280000 -1.1400090000
O 2.8535690000 0.8165390000 -0.3924440000
C -1.8697000000 -0.8220080000 -1.4383480000
H -2.6928050000 -1.5318720000 -1.3319990000
H -0.9347190000 -1.3273460000 -1.6740930000
H -2.1166090000 -0.0533030000 -2.1694410000
C 1.8694060000 -0.8226930000 1.4380140000
H 0.9343720000 -1.3281340000 1.6733370000
H 2.1161750000 -0.0543320000 2.1695160000
H 2.6925250000 -1.5325150000 1.3314970000
