8
0 1
C -1.3810070000 -0.0000000000 -0.1160800000
Si 0.4900890000 0.0000000000 0.3067160000
F 0.6056090000 -0.0000000000 1.8893850000
Cl 1.3565020000 1.6820170000 -0.4316350000
F -1.9917310000 1.0898480000 0.3953770000
F -1.5883990000 -0.0000000000 -1.4492470000
Cl 1.3565020000 -1.6820170000 -0.4316350000
F -1.9917310000 -1.0898480000 0.3953770000
