12
0 1
C -0.4946140000 -0.6427060000 -0.7880110000
N -1.7181970000 -0.0516540000 -0.1283950000
P 1.0863030000 -0.0698750000 -0.0525150000
H -0.5229450000 -0.3267300000 -1.8318770000
H -0.5823450000 -1.7233680000 -0.7163300000
O -2.6320830000 -0.8001580000 0.1348240000
O -1.7149830000 1.1626070000 0.0776030000
O 2.2672150000 -0.6881440000 -0.6488500000
O 1.0335500000 1.5100380000 -0.1782840000
H 0.1387560000 1.8499900000 0.0092660000
O 0.8039490000 -0.4230750000 1.4858670000
H 1.6058710000 -0.6240980000 1.9842270000
