14
0 1
Si -1.0924990000 -0.8395830000 -0.4895810000
Si 1.1029720000 -0.8544040000 0.3948730000
C 1.9147010000 0.8602350000 0.2610920000
H 1.9595380000 -1.8045770000 -0.3595200000
H 1.0404950000 -1.2706010000 1.8189740000
N 2.9191470000 1.1713860000 -0.4605120000
H 1.4800740000 1.6798200000 0.8483980000
H 3.2701930000 0.3577930000 -0.9769220000
C -2.2105530000 0.3523410000 0.4842130000
H -1.6489430000 -2.2144810000 -0.4194070000
H -1.0809310000 -0.3788420000 -1.9006530000
N -2.7048130000 1.4505440000 0.0648290000
H -2.4547480000 0.0882890000 1.5219750000
H -2.4375230000 1.6294540000 -0.9089760000
