14
0 1
C -0.0000070000 1.1049750000 1.2107990000
C -0.0000070000 -0.2848230000 1.2069480000
C -0.0000090000 -1.0165540000 -0.0000000000
C -0.0000060000 1.7989820000 0.0000000000
C -0.0000070000 1.1049750000 -1.2107990000
C -0.0000070000 -0.2848230000 -1.2069480000
H -0.0000070000 1.6504780000 2.1478660000
H -0.0000080000 -0.8253600000 2.1476400000
H -0.0000080000 -0.8253600000 -2.1476400000
H -0.0000060000 2.8837830000 0.0000000000
H -0.0000070000 1.6504780000 -2.1478660000
B -0.0000180000 -2.5518710000 -0.0000000000
H 0.0001900000 -3.1555260000 1.0297620000
H 0.0001900000 -3.1555260000 -1.0297620000
