21
0 1
C 1.9909450000 -1.4952680000 -0.3723130000
C 0.7080820000 -0.9691980000 -0.5022820000
C 3.0270450000 -0.7042810000 0.1187080000
C 2.7822210000 0.6217730000 0.4803830000
C 1.5065230000 1.1514950000 0.3467460000
C 0.4554340000 0.3628550000 -0.1445270000
H -0.0983590000 -1.5952640000 -0.8586720000
H 2.1803920000 -2.5253550000 -0.6520710000
H 4.0239130000 -1.1188870000 0.2206350000
H 3.5880150000 1.2384380000 0.8621360000
H 1.2943510000 2.1803170000 0.6104070000
C -0.8847040000 1.0109440000 -0.2988480000
O -1.0391460000 2.1990660000 -0.0904820000
C -2.0937370000 0.1920850000 -0.7896400000
O -2.2702090000 -1.0765470000 -0.1910640000
H -1.9691200000 0.0101610000 -1.8622700000
H -2.9737200000 0.8315940000 -0.6487650000
C -2.6868380000 -1.0034570000 1.1646030000
H -3.6297580000 -0.4484960000 1.2584760000
H -1.9316100000 -0.5262810000 1.8022620000
H -2.8390930000 -2.0280550000 1.5032470000
