11
0 2
S 2.0398900000 -0.4124270000 0.0001170000
C 0.4143430000 0.2766900000 -0.0001850000
O 0.3803400000 1.4932410000 0.0000800000
C -0.7639030000 -0.6103050000 -0.0001050000
C -2.0049030000 -0.1294260000 0.7440970000
C -2.0049770000 -0.1294410000 -0.7441850000
H -0.5499580000 -1.6722110000 -0.0001030000
H -2.5739000000 -0.8848700000 -1.2711310000
H -1.9134000000 0.8248460000 -1.2471920000
H -1.9132780000 0.8248720000 1.2470730000
H -2.5737770000 -0.8848420000 1.2711150000
