11
0 1
P -0.8209150000 -0.6319940000 0.0928590000
C 0.9931260000 -0.5664350000 -0.3690710000
N -1.2959910000 1.0043910000 -0.0659400000
N 1.6472330000 0.6272520000 0.1797400000
H 1.0430470000 -0.5156410000 -1.4608750000
H 1.4472310000 -1.5247670000 -0.0704140000
H 2.5619350000 0.7700790000 -0.2370450000
H 1.7847980000 0.5258860000 1.1806640000
H -0.5668420000 -0.6428550000 1.4937590000
H -1.8513900000 1.1837100000 -0.8909450000
H -0.5224940000 1.6606080000 0.0097920000
