16
0 1
C 0.3876090000 0.0000050000 0.7911130000
C -0.5487780000 -1.2030010000 0.5862760000
C -1.5004280000 -0.7793150000 -0.5572430000
H -1.1197990000 -1.3487860000 1.5105780000
H -0.0110230000 -2.1294220000 0.3824240000
C -1.5004410000 0.7793050000 -0.5572420000
H -2.5013920000 -1.1904830000 -0.4121800000
H -1.1433660000 -1.1633520000 -1.5160260000
C -0.5487800000 1.2030070000 0.5862640000
H -2.5014100000 1.1904540000 -0.4121600000
H -1.1434040000 1.1633500000 -1.5160310000
H -0.0110260000 2.1294240000 0.3823930000
H -1.1197930000 1.3488080000 1.5105680000
S 1.8607430000 -0.0000000000 -0.3316180000
H 0.8500180000 0.0000100000 1.7800440000
H 1.1942220000 0.0000010000 -1.4987290000
