10
0 1
N 0.3887810000 0.0032260000 -0.3030550000
P -1.3137240000 -0.1679390000 -0.0226120000
N 1.0770070000 -1.1877780000 0.0479110000
N 1.0815670000 1.1892330000 0.0833460000
H 0.6803210000 1.5739510000 0.9405140000
H 0.9638340000 1.8805300000 -0.6509060000
H 1.4264050000 -1.1145290000 1.0042480000
H 1.8881500000 -1.2621450000 -0.5592760000
H -1.6721580000 1.1095150000 -0.5303130000
H -1.4121780000 0.2989940000 1.3374900000
