19
0 1
C -1.3090010000 0.1624210000 0.0755470000
S 0.1018400000 -0.7926850000 -0.7309790000
S 1.7729290000 -0.5047980000 0.4675810000
C 2.6513180000 0.8950710000 -0.3240140000
H 3.6009280000 0.9852660000 0.2095540000
H 2.0924390000 1.8246830000 -0.2300530000
H 2.8468120000 0.6729210000 -1.3719660000
C -2.4843290000 -0.0870800000 -0.8820620000
H -2.2840170000 0.3159430000 -1.8779990000
H -3.3807550000 0.4052900000 -0.4919850000
H -2.7031270000 -1.1536070000 -0.9788480000
C -1.6051500000 -0.4142660000 1.4623450000
H -0.7443500000 -0.3044110000 2.1254250000
H -1.8590600000 -1.4746410000 1.4023220000
H -2.4495610000 0.1178440000 1.9146620000
C -0.9836980000 1.6551860000 0.1595350000
H -0.7606940000 2.0699660000 -0.8259800000
H -0.1298580000 1.8338960000 0.8167230000
H -1.8399020000 2.1985850000 0.5744260000
