9
0 1
C -0.6402410000 0.6414670000 -0.0394580000
Si 1.1045570000 -0.1048390000 0.0085880000
O -1.6424720000 -0.3782380000 0.1125920000
H -1.5953600000 -0.9536100000 -0.6572130000
H 2.1396880000 0.9214980000 -0.2719190000
H 1.1839170000 -1.1605260000 -1.0333480000
H 1.3662910000 -0.7219560000 1.3281260000
H -0.7993990000 1.2338600000 -0.9515560000
H -0.7777240000 1.3255840000 0.8016990000
