10
0 1
C -1.8792040000 -0.1601360000 -0.0005430000
N -2.9706270000 0.2084420000 0.0002320000
C 1.8792090000 0.1601500000 0.0005560000
N 2.9706180000 -0.2084710000 -0.0002560000
C 0.4877320000 0.6015680000 -0.0001200000
C -0.4877280000 -0.6015540000 0.0001310000
H 0.3136300000 1.2260820000 -0.8799550000
H 0.3131080000 1.2268930000 0.8790330000
H -0.3136250000 -1.2260680000 0.8799660000
H -0.3131030000 -1.2268790000 -0.8790220000
