21
0 1
C 0.6145550000 -0.0653430000 -0.0151720000
N 0.7364130000 -0.0673890000 1.5440010000
O 0.0907070000 0.7965320000 2.0885390000
O 1.4807760000 -0.8781160000 2.0302740000
C -0.8428140000 0.0476630000 -0.5249540000
N 1.3185270000 -1.3490920000 -0.5371120000
C -1.0278520000 0.0689710000 -2.0346290000
H -0.5213640000 0.9312280000 -2.4577090000
H -2.0955750000 0.1239460000 -2.2392550000
H -0.6355370000 -0.8441600000 -2.4772890000
N -1.7102470000 -1.1062460000 0.0994950000
O -2.6696520000 -1.4536010000 -0.5436760000
O -1.3605210000 -1.5242930000 1.1829180000
N -1.4821940000 1.3751860000 0.0198680000
N 1.5439760000 1.1068910000 -0.5129900000
O -2.5269540000 1.2873230000 0.6129360000
O -0.8764850000 2.3800110000 -0.2887810000
O 0.5899230000 -2.2695370000 -0.8445230000
O 2.5231770000 -1.3112910000 -0.5631950000
O 2.0765720000 1.7746950000 0.3319180000
O 1.6654340000 1.1690020000 -1.7151680000
