8
0 1
Si -1.3541620000 -0.5821880000 -0.0000000000
Si 0.5260200000 0.8429000000 0.0000010000
Cl 2.2017940000 -0.4136760000 -0.0000010000
H 0.6053690000 1.6904830000 1.2080850000
H 0.6053680000 1.6904850000 -1.2080820000
F -2.7009360000 0.3175210000 0.0000000000
H -1.3694130000 -1.4280620000 1.2124240000
H -1.3694130000 -1.4280590000 -1.2124270000
