11
0 1
P 0.3716600000 0.3514240000 -0.8104040000
N -1.2466740000 0.2025460000 -0.2102290000
O -1.4047520000 0.3744700000 1.1883620000
C 0.8468140000 1.8810160000 0.0864860000
H 0.6745610000 1.7926960000 1.1576710000
H 0.2564320000 2.7060040000 -0.3222050000
Cl 1.4470790000 -1.0854940000 0.3774790000
H 1.9023020000 2.0720630000 -0.1149960000
H -2.2536600000 0.8307130000 1.2584110000
O -1.8187060000 -1.0263290000 -0.5866860000
H -1.3213770000 -1.7084750000 -0.1006800000
