22
0 1
C -1.8737230000 -0.0751130000 0.0189040000
P 1.6011140000 -0.0847750000 0.1003080000
O 1.7393370000 -0.8951540000 1.3271770000
C -3.1330290000 0.8098520000 -0.1140360000
H -3.1873180000 1.3022750000 -1.0898870000
H -3.1728290000 1.5838650000 0.6584700000
C -1.8599320000 -0.7540240000 1.4047470000
H -1.8986970000 -0.0183440000 2.2139020000
H -0.9652110000 -1.3628700000 1.5541540000
H -2.7369260000 -1.4042870000 1.5079570000
H -4.0332850000 0.1928440000 -0.0068330000
C -1.8787760000 -1.1442110000 -1.0931050000
H -2.7766870000 -1.7672510000 -1.0036160000
H -1.0094740000 -1.8034140000 -1.0331340000
H -1.8875100000 -0.6940780000 -2.0904370000
Si -0.3533790000 1.0576860000 -0.1577870000
O 2.7996700000 1.0062300000 -0.0527620000
H 3.2122200000 1.1777710000 0.8032190000
O 1.7121330000 -0.8748040000 -1.3007190000
H 2.4791220000 -1.4623380000 -1.3483710000
H -0.3158960000 2.0719340000 0.9231460000
H -0.3132800000 1.7387050000 -1.4728040000
