17
0 1
C 1.5231030000 0.1983680000 -0.0022110000
B -1.5040230000 0.0425350000 0.0346970000
C -2.6711120000 -0.9185100000 0.4664060000
H -3.6530570000 -0.5190550000 0.1889240000
H -2.6661450000 -0.9551970000 1.5663640000
H -2.5968320000 -1.9501120000 0.1141610000
O 1.5805720000 1.4016540000 -0.1013980000
C 2.6354730000 -0.6200440000 0.6284200000
C -1.6561450000 1.5986490000 0.0943500000
H -0.7140430000 2.1381430000 0.2110050000
H -2.3711900000 1.9192170000 0.8591290000
H -2.0754570000 1.9226910000 -0.8707460000
H 2.9336940000 -1.4414390000 -0.0285360000
H 2.2853350000 -1.0610040000 1.5663740000
H 3.4881080000 0.0304100000 0.8262160000
P 0.0725240000 -0.7391740000 -0.7249510000
H 0.1693560000 -1.9727350000 -0.0427180000
