8
0 1
F 0.6018060000 0.2361680000 2.1341090000
N 0.4646120000 0.4191830000 0.7747020000
C 0.8225650000 -0.6072100000 -0.1647560000
O 1.7571310000 -1.2971170000 -0.3519540000
C -0.8225650000 0.6072100000 0.1647560000
N -0.4646120000 -0.4191830000 -0.7747020000
O -1.7571310000 1.2971170000 0.3519540000
F -0.6018060000 -0.2361680000 -2.1341090000
