10
0 1
Si 1.6840070000 -0.4203320000 0.0000040000
Si -0.2122340000 0.9868940000 0.0000040000
H 1.7082640000 -1.2720980000 1.2108620000
H 2.8986680000 0.4334190000 0.0000130000
H 1.7082730000 -1.2720860000 -1.2108620000
N -1.7649550000 0.0531050000 -0.0000050000
H -0.2893010000 1.8533960000 -1.2003770000
H -0.2893090000 1.8533860000 1.2003920000
N -1.6296360000 -1.1844250000 -0.0000120000
H -2.5792800000 -1.6086430000 -0.0000150000
