16
0 1
C -1.8821330000 0.1204380000 -0.1548200000
S -0.4376100000 -1.0436700000 0.0467830000
B 1.0563680000 -0.0368640000 -0.0413950000
S 2.6823620000 -0.8426430000 0.1464310000
S 0.9999880000 1.7645370000 -0.3276170000
C -3.0311580000 -0.6742700000 -0.7783550000
H -3.3363780000 -1.5008290000 -0.1302900000
H -2.7526640000 -1.0867570000 -1.7497380000
C -2.2691460000 0.7563510000 1.1801640000
H -1.5586070000 0.8898200000 -0.8585800000
H -3.1134640000 1.4385110000 1.0343670000
H -1.4446590000 1.3258680000 1.6114490000
H -2.5701540000 -0.0080810000 1.9012130000
H -3.8973720000 -0.0205660000 -0.9174680000
H 2.3268680000 1.9814110000 -0.3402060000
H 2.2433700000 -2.1017570000 0.3247270000
