8
0 1
B -1.4764570000 -0.2144130000 0.0000090000
B -0.0000000000 0.4690610000 -0.0000330000
B 1.4764580000 -0.2144100000 0.0000190000
H 2.0482630000 -0.4693150000 1.0185170000
H 2.0483220000 -0.4693480000 -1.0184360000
H 0.0000040000 1.6761220000 -0.0001070000
H -2.0482650000 -0.4694570000 -1.0184520000
H -2.0483290000 -0.4691890000 1.0185010000
