10
0 1
S -1.5898080000 -0.5295210000 0.1495760000
S -0.1813800000 0.9638060000 -0.2391130000
C 1.3674290000 0.3048130000 0.5055720000
C 1.9874090000 -0.8713620000 -0.2362600000
H 1.1635380000 0.0657030000 1.5503960000
H 2.0288450000 1.1776000000 0.4885650000
H 1.3204990000 -1.7364790000 -0.2260460000
H 2.9244370000 -1.1696460000 0.2443850000
H 2.2015880000 -0.6143200000 -1.2760920000
H -1.4289170000 -1.2721250000 -0.9644890000
