8
0 1
C 0.3848280000 0.0000000000 0.0508670000
C -0.7467690000 0.0000000000 1.0822400000
Cl 0.3337290000 -1.4640080000 -0.9777730000
Cl 1.9241820000 0.0000000000 0.9971680000
Cl 0.3337290000 1.4640080000 -0.9777730000
Cl -2.3865060000 0.0000000000 0.3588930000
H -0.6578230000 0.8932060000 1.6963070000
H -0.6578230000 -0.8932060000 1.6963070000
