10
0 2
C -0.1829500000 0.3978560000 0.0000000000
C 0.0215660000 1.0747200000 1.3103600000
H -0.4926510000 0.5482960000 2.1177460000
H -0.3585340000 2.0994440000 1.2653040000
C 0.0215660000 1.0747200000 -1.3103600000
Cl 0.0215660000 -1.3434610000 -0.0000000000
H -0.3585340000 2.0994440000 -1.2653040000
H -0.4926510000 0.5482960000 -2.1177460000
H 1.0873270000 1.1297890000 -1.5839520000
H 1.0873270000 1.1297890000 1.5839520000
