13
0 1
C 1.3561330000 -0.5553690000 -0.0000010000
O 0.0107840000 -0.7120800000 -0.0000010000
C -0.7925440000 0.4699240000 0.0000010000
C -2.2473340000 0.0417080000 0.0000000000
C 2.0622210000 0.5766400000 0.0000010000
H 1.8370240000 -1.5278040000 -0.0000020000
H 1.6174580000 1.5620960000 0.0000020000
H 3.1419760000 0.5171640000 0.0000010000
H -0.5552950000 1.0708320000 -0.8868880000
H -0.5552950000 1.0708300000 0.8868910000
H -2.4719920000 -0.5566130000 -0.8855690000
H -2.8990110000 0.9193320000 0.0000010000
H -2.4719920000 -0.5566150000 0.8855680000
