8
0 1
C 0.5603510000 -0.1329810000 -0.0000040000
C -0.8198210000 0.6249330000 -0.0000050000
Cl 0.6930860000 -1.1403340000 1.4646200000
Cl 1.8597570000 1.0984260000 0.0000220000
Cl 0.6931120000 -1.1402980000 -1.4646490000
F -0.8876660000 1.4083470000 1.0849630000
Cl -2.2144850000 -0.4825940000 0.0000300000
F -0.8876870000 1.4083070000 -1.0850000000
