11
0 1
Si -2.1380830000 -0.6909990000 -0.2262150000
Si -0.6737730000 1.0975960000 0.2446940000
H -3.4973660000 -0.1319700000 -0.4255050000
H -2.1655880000 -1.6597690000 0.8893590000
H -1.7038700000 -1.3604520000 -1.4739370000
O 0.9166710000 0.8600680000 -0.4116890000
H -0.5432560000 1.3850440000 1.6878860000
H -1.0226420000 2.3315020000 -0.4882100000
N 1.6078560000 -0.2752330000 0.0105480000
O 1.0090870000 -0.9984870000 0.7898630000
O 2.7047070000 -0.4028420000 -0.4434410000
