17
0 1
Si 0.0000170000 -0.0000210000 0.0000340000
C -1.2827740000 -1.2976750000 0.4730630000
H -1.2892160000 -1.4765050000 1.5529010000
H -1.0813870000 -2.2547300000 -0.0184190000
H -2.2912290000 -0.9847220000 0.1846950000
C -0.0338160000 0.2659310000 -1.8658230000
H 0.1930440000 -0.6595500000 -2.4044300000
H 0.7011840000 1.0158410000 -2.1748290000
H -1.0171360000 0.6101480000 -2.2014770000
C 1.7129020000 -0.5910660000 0.5194920000
H 1.9747190000 -1.5339770000 0.0291440000
H 1.7669730000 -0.7554020000 1.6003010000
H 2.4832930000 0.1413300000 0.2584120000
C -0.3963350000 1.6228390000 0.8732330000
H -0.3852010000 1.5030070000 1.9611600000
H -1.3867900000 1.9947760000 0.5926280000
H 0.3316370000 2.3999070000 0.6196610000
