10
0 2
Si -0.4832320000 0.3716850000 -0.0000000000
C 0.1700550000 1.1949020000 1.5605560000
H -0.1928220000 0.6875050000 2.4565470000
H -0.1557280000 2.2385970000 1.5984180000
C 0.1700550000 1.1949020000 -1.5605560000
Cl 0.1700550000 -1.6316790000 0.0000000000
H -0.1557280000 2.2385970000 -1.5984180000
H -0.1928220000 0.6875050000 -2.4565470000
H 1.2653740000 1.1719650000 -1.5706370000
H 1.2653740000 1.1719650000 1.5706370000
