8
0 1
C -0.6371750000 0.3617430000 -0.0000120000
B 1.8485170000 0.1448160000 0.0000020000
O -1.7376600000 -0.1228750000 0.0000090000
N 0.5436110000 -0.3856670000 -0.0000030000
H 2.7722070000 -0.6011860000 0.0000060000
H 1.9767180000 1.3271030000 -0.0000030000
H -0.4423130000 1.4476910000 0.0000100000
H 0.3698550000 -1.3854830000 -0.0000010000
