10
0 1
B 1.0826170000 0.0000010000 -0.0438480000
F 1.7786680000 -1.1374670000 -0.0077850000
F 1.7786740000 1.1374640000 -0.0077870000
N -0.3059300000 0.0000010000 -0.2301130000
C -1.3739890000 0.0000030000 0.4326690000
C -2.7359520000 -0.0000010000 -0.1928750000
H -2.6616030000 -0.0000050000 -1.2798550000
H -3.2999240000 0.8785830000 0.1387920000
H -3.2999220000 -0.8785830000 0.1388000000
H -1.3665630000 0.0000050000 1.5336800000
