18
0 1
Cl 3.0533540000 -1.3652330000 0.0000820000
Cl 2.8080400000 1.6383820000 0.0000560000
B 1.9919170000 0.0593220000 -0.0000990000
C 0.4655170000 -0.0664220000 -0.0000710000
C -0.1754160000 -1.3279380000 -0.0000470000
C -1.5501380000 -1.4434950000 -0.0000250000
C -2.3529160000 -0.2912980000 -0.0000240000
C -0.3652920000 1.0699860000 -0.0000680000
H 0.0846490000 2.0555350000 -0.0000850000
C -1.7502400000 0.9735790000 -0.0000460000
H -2.3472350000 1.8752600000 -0.0000450000
H 0.4260710000 -2.2288700000 -0.0000480000
O -3.6879590000 -0.5065770000 -0.0000010000
C -4.5694530000 0.6134950000 0.0000030000
H -4.4311090000 1.2285490000 0.8948380000
H -5.5742570000 0.1959620000 0.0000240000
H -4.4311390000 1.2285320000 -0.8948480000
H -2.0389720000 -2.4099410000 -0.0000070000
