9
0 1
F -2.3406730000 0.1886140000 -0.0000050000
O -1.2133760000 -0.8011280000 -0.0000010000
C -0.0217210000 -0.1933670000 0.0000100000
S 1.2327720000 -1.2480020000 -0.0000050000
O -0.0594200000 1.1110610000 0.0000080000
C 1.1993760000 1.8232040000 0.0000020000
H 0.9193980000 2.8729710000 0.0000020000
H 1.7693710000 1.5695180000 -0.8933580000
H 1.7693760000 1.5695200000 0.8933600000
