9
0 2
S 1.3565240000 1.1752440000 -0.0835480000
S 0.1599840000 -0.5116420000 0.0560470000
O -0.0859660000 -0.6459310000 1.4713900000
O -1.2132960000 -0.1262250000 -0.6832680000
C -2.0975230000 0.8238010000 -0.0393540000
H -3.0005300000 0.8136670000 -0.6453570000
H -1.6482880000 1.8190950000 -0.0500660000
H -2.3134990000 0.5069910000 0.9801950000
O 0.7096800000 -1.5653690000 -0.7392000000
