12
0 1
C -0.0000000000 0.6634680000 0.6672020000
C -0.0000000000 0.6634680000 -0.6672020000
C -0.0000000000 -0.5217410000 1.5898330000
H 0.0000000000 1.6313820000 1.1650030000
H -0.8781330000 -0.5032540000 2.2453250000
H 0.8781350000 -0.5032560000 2.2453230000
H -0.0000020000 -1.4752350000 1.0597710000
C -0.0000000000 -0.5217410000 -1.5898330000
H -0.8781330000 -0.5032540000 -2.2453250000
H -0.0000020000 -1.4752350000 -1.0597710000
H 0.8781350000 -0.5032560000 -2.2453230000
H 0.0000000000 1.6313820000 -1.1650030000
