9
0 1
C -1.2334840000 0.1623040000 0.0000040000
C 0.1346020000 -0.4535610000 0.0000040000
C 1.2804940000 0.2203940000 -0.0000080000
H 2.2389170000 -0.2863550000 -0.0000070000
H 1.3018230000 1.3064200000 -0.0000210000
H -1.8073150000 -0.1532900000 0.8785020000
H -1.8073260000 -0.1533140000 -0.8784780000
H -1.1824680000 1.2537080000 -0.0000110000
H 0.1666960000 -1.5419900000 0.0000160000
