22
0 1
C 0.4660080000 -1.5645150000 -0.2363440000
C 1.7081570000 -2.1475190000 -0.1638650000
C 2.8598790000 -1.3562200000 0.0415540000
C 2.7424720000 0.0063650000 0.1573870000
C 1.4756930000 0.6420750000 0.0819880000
C 0.3023180000 -0.1594290000 -0.1094290000
H -0.4044820000 -2.1869390000 -0.4037160000
H 1.8063590000 -3.2220410000 -0.2686440000
H 3.8342340000 -1.8277730000 0.1005700000
H 3.6227470000 0.6230130000 0.3061710000
C -0.9745200000 0.4895820000 -0.1657060000
C -1.0428470000 1.8662010000 -0.0701700000
C 1.3506230000 2.0510930000 0.1819740000
C 0.1192510000 2.6492690000 0.0982170000
H 2.2459450000 2.6470660000 0.3232420000
H 0.0261760000 3.7268200000 0.1723870000
H -2.0050650000 2.3637510000 -0.1127720000
B -3.0894790000 -1.3948170000 1.0564390000
P -2.5132180000 -0.4690180000 -0.4371500000
H -4.2587570000 -1.5856330000 1.1666570000
H -2.3081300000 -1.9375890000 1.7675520000
H -3.4555750000 0.5472590000 -0.6700300000
