13
0 1
C 2.5347270000 -0.8120660000 0.3434040000
C 1.9194530000 0.3969720000 -0.3843880000
H 1.9753870000 -1.7258230000 0.1306900000
H 2.5353850000 -0.6685420000 1.4276560000
H 3.5701680000 -0.9739100000 0.0322800000
Si 0.1493830000 0.7733980000 0.0807130000
H 2.5043690000 1.3033830000 -0.1822970000
H 1.9590090000 0.2501150000 -1.4695010000
O -0.7060710000 -0.6549500000 -0.3715630000
N -2.0828070000 -0.7848670000 -0.1746450000
O -2.5902150000 0.1631540000 0.3140770000
H -0.3943490000 1.9210730000 -0.6748590000
H -0.0164700000 0.9851430000 1.5343550000
