27
0 2
C 1.1352840000 -1.7405150000 0.0273630000
N -0.2198590000 -1.4015430000 0.4432750000
C -1.1808950000 -1.0746330000 -0.5122470000
H -0.2672420000 -0.8594710000 1.2954580000
C -2.5321140000 -0.6298870000 -0.0415160000
H -1.0926640000 -1.6320540000 -1.4393340000
C 1.9794920000 -0.5774990000 -0.5234970000
H 1.0549380000 -2.5219150000 -0.7358410000
H 1.6449180000 -2.1924610000 0.8855810000
C -2.5813760000 0.7852100000 0.5797290000
H -2.9296410000 -1.3434200000 0.7017180000
H -3.2224560000 -0.6604610000 -0.8909050000
C -2.2857910000 1.9036680000 -0.4222560000
H -1.8733470000 0.8458770000 1.4161690000
H -3.5728700000 0.9382510000 1.0206900000
H -1.3035400000 1.7675090000 -0.8819890000
H -2.3058900000 2.8863080000 0.0574870000
H -3.0277350000 1.9110620000 -1.2274150000
C 2.2859810000 0.5146920000 0.5063060000
H 1.4553420000 -0.1394670000 -1.3804290000
H 2.9219020000 -0.9899430000 -0.9058850000
C 3.1473180000 1.6487490000 -0.0568990000
H 2.7933900000 0.0647500000 1.3694620000
H 1.3465250000 0.9333720000 0.8847070000
H 4.1116310000 1.2734450000 -0.4134050000
H 3.3471480000 2.4125160000 0.6996150000
H 2.6512080000 2.1381980000 -0.9005080000
