18
0 1
Cl 2.7281520000 -1.1270010000 0.3508880000
Cl 1.9018690000 1.6403390000 -0.4201030000
B 1.3931400000 -0.0018370000 -0.0155670000
C -0.0656270000 -0.5109540000 -0.0153430000
C -1.2126900000 0.3281950000 0.0640100000
C -2.4997650000 -0.2179060000 -0.0049950000
H -3.3698880000 0.4203490000 0.0563760000
C -2.6712370000 -1.5908360000 -0.1464450000
C -0.2961570000 -1.8968090000 -0.1361920000
H 0.5598510000 -2.5576070000 -0.1850230000
C -1.5706180000 -2.4402870000 -0.2110290000
H -1.7042370000 -3.5099300000 -0.3160750000
H -3.6764160000 -1.9946160000 -0.2000990000
O -0.9929420000 1.6509710000 0.2348660000
C -2.0942020000 2.5492280000 0.2961980000
H -1.6555520000 3.5385550000 0.4100320000
H -2.7370400000 2.3357130000 1.1565690000
H -2.6874580000 2.5184210000 -0.6234490000
