17
0 1
C -0.1454320000 0.2044540000 -0.0841000000
C 1.3092400000 0.5285390000 -0.1817260000
P 2.5181580000 -0.8218470000 0.2653990000
N 1.7902530000 1.6292480000 -0.6101880000
H 1.0394930000 2.2543030000 -0.9215160000
C -0.6344580000 -1.0713510000 -0.3936340000
C -1.9983250000 -1.3417350000 -0.3246320000
C -2.8902950000 -0.3487600000 0.0740980000
C -2.4125580000 0.9196850000 0.4000640000
C -1.0519520000 1.1953580000 0.3183810000
H 0.0507430000 -1.8487060000 -0.7129330000
H -2.3639570000 -2.3291520000 -0.5824760000
H -3.9511170000 -0.5630160000 0.1359410000
H -3.0999990000 1.6927380000 0.7243720000
H -0.6827250000 2.1773020000 0.5934550000
H 2.0711230000 -1.0272880000 1.5952140000
H 3.5749920000 0.0496470000 0.6075620000
