10
0 1
Si 0.7014540000 -0.7189030000 -0.0000110000
N -0.9618600000 0.1452130000 -0.0000530000
O -1.0050740000 1.3725720000 0.0000290000
O -1.9448820000 -0.5904020000 0.0000450000
C 2.0403970000 0.5665220000 -0.0000080000
H 1.9664700000 1.2027860000 -0.8844460000
H 3.0232000000 0.0852070000 0.0000190000
H 1.9664360000 1.2028160000 0.8844050000
H 0.6569330000 -1.5495910000 -1.2159300000
H 0.6568940000 -1.5495570000 1.2159300000
