13
0 1
Si 1.7421320000 -0.3783160000 -0.0119740000
C -0.0298700000 0.2354830000 0.3580190000
O -0.9120330000 -0.6408370000 -0.3036210000
O -0.2064540000 1.5923500000 -0.0404080000
C -2.2843200000 -0.4642390000 0.0484960000
H -2.4437580000 -0.6854480000 1.1119700000
H -2.8572750000 -1.1676360000 -0.5548230000
H -2.6167520000 0.5564390000 -0.1595630000
H -0.0089820000 1.6457350000 -0.9834140000
H -0.2398850000 0.2499030000 1.4363910000
H 2.0078630000 -0.1136010000 -1.4472860000
H 1.8970060000 -1.8223330000 0.2716970000
H 2.7049790000 0.3938080000 0.8058090000
