17
0 1
C 2.7887190000 0.2292240000 0.0495030000
C 1.7950260000 1.2072320000 0.0221530000
C 0.4533660000 0.8438190000 -0.0273510000
C 2.4341540000 -1.1156350000 0.0261490000
C 1.0899260000 -1.4807130000 -0.0215160000
C 0.0905900000 -0.5121950000 -0.0470920000
H 3.1980800000 -1.8836020000 0.0459300000
H 0.7869500000 -2.5205200000 -0.0392820000
O -1.2086750000 -0.9138190000 -0.0996880000
Si -2.6989100000 -0.1877430000 0.0594490000
H 3.8304220000 0.5242540000 0.0874490000
H 2.0600860000 2.2606440000 0.0361350000
O -0.5771980000 1.7485510000 -0.0627670000
H -0.2320680000 2.6438470000 0.0068800000
H -3.0273370000 0.6930710000 -1.0788990000
H -2.8308190000 0.5419780000 1.3376790000
H -3.6242730000 -1.3395220000 0.0603860000
