10
0 1
F -2.2055240000 0.3794070000 -0.5030010000
S -1.2004640000 -0.6998870000 0.3025150000
C 0.3484230000 0.0844170000 0.0337510000
N 1.2730500000 -0.7743850000 -0.1936320000
O 2.5429370000 -0.1922220000 -0.1219920000
H 3.1194180000 -0.9252950000 -0.3623580000
C 0.4964410000 1.5623710000 0.2235780000
H -0.4417500000 2.0648080000 -0.0091360000
H 1.2932700000 1.9413080000 -0.4168020000
H 0.7621800000 1.7804500000 1.2624500000
