12
0 1
Cl 2.6218900000 0.2440310000 -0.0000040000
O 1.2998060000 -0.8766180000 -0.0000020000
C 0.0350850000 -0.3351830000 0.0000000000
C -0.9838400000 -1.2905920000 0.0000040000
C -0.2941860000 1.0128960000 -0.0000020000
C -1.6495540000 1.3445480000 -0.0000000000
C -2.2952780000 -0.8340760000 0.0000060000
N -2.6444470000 0.4576580000 0.0000040000
H -0.7473830000 -2.3465140000 0.0000060000
H -3.1099180000 -1.5525500000 0.0000090000
H 0.4636970000 1.7828060000 -0.0000050000
H -1.9392080000 2.3915130000 -0.0000020000
