27
0 1
O -0.2770760000 -0.1109970000 0.4135200000
C -1.6622790000 -0.2260350000 0.0325230000
C -1.7869060000 -1.2696460000 -1.0851530000
H -1.3764590000 -2.2263260000 -0.7539890000
H -1.2418530000 -0.9519000000 -1.9772740000
C -2.3944590000 -0.6955990000 1.2929330000
H -3.4612780000 -0.8354790000 1.0978410000
H -2.2782750000 0.0396880000 2.0924020000
H -1.9748140000 -1.6429470000 1.6381400000
C -2.2066540000 1.1325440000 -0.4291150000
H -1.6874300000 1.4805700000 -1.3266500000
H -2.0835830000 1.8812510000 0.3571450000
H -3.2711130000 1.0594130000 -0.6681420000
H -2.8343620000 -1.4200220000 -1.3614750000
Si 1.0556330000 0.5696050000 -0.2910230000
C 2.5346000000 -0.4153210000 0.3144300000
C 2.4910700000 -1.9167590000 -0.0162720000
H 2.6126150000 -0.2723810000 1.3992660000
H 3.4371160000 0.0408570000 -0.1126800000
C 1.2457670000 2.3793960000 0.1691400000
H 1.2991240000 2.5051020000 1.2547510000
H 0.4117620000 2.9826370000 -0.1989440000
H 2.1662300000 2.7875480000 -0.2616240000
H 1.6067310000 -2.3867300000 0.4208120000
H 3.3716060000 -2.4404700000 0.3676390000
H 2.4537750000 -2.0866430000 -1.0966140000
H 0.9611300000 0.4678590000 -1.7753750000
