26
0 1
C -1.1119420000 -0.0002310000 0.0000180000
Si 0.8119220000 0.0000010000 -0.0000140000
C 1.4707030000 -0.8824490000 -1.5342880000
H 1.1472030000 -1.9265200000 -1.5759830000
H 2.5654660000 -0.8796090000 -1.5310620000
H 1.1457100000 -0.3945990000 -2.4577850000
C 1.4696390000 1.7703650000 0.0028410000
H 1.1459790000 2.3282840000 -0.8805930000
H 2.5644060000 1.7667100000 0.0039580000
H 1.1441410000 2.3261340000 0.8869850000
C 1.4705700000 -0.8873780000 1.5314650000
H 1.1459880000 -1.9312280000 1.5704640000
H 1.1466410000 -0.4017900000 2.4565500000
H 2.5653320000 -0.8856360000 1.5275950000
C -1.6441140000 0.7278960000 -1.2525350000
H -1.3183760000 1.7717350000 -1.2894090000
H -2.7415840000 0.7294210000 -1.2540040000
H -1.3192640000 0.2427790000 -2.1778460000
C -1.6442370000 -1.4489000000 -0.0042440000
H -1.3196150000 -2.0023620000 -0.8904440000
H -2.7417180000 -1.4508270000 -0.0035210000
H -1.3183250000 -2.0080610000 0.8779150000
C -1.6439960000 0.7205720000 1.2567580000
H -1.3185320000 1.7642700000 1.2994810000
H -1.3186290000 0.2302880000 2.1791470000
H -2.7414640000 0.7217530000 1.2586610000
