14
0 1
Si -1.4482290000 -0.7125840000 0.2208280000
C -0.0243320000 0.1536000000 -0.6840820000
Si 1.7236000000 -0.4762640000 -0.3931350000
O 2.1056690000 0.3088170000 1.0226210000
H 3.0124340000 0.3415170000 1.3330530000
O -0.1048210000 1.5629960000 -0.2886560000
H -0.2376450000 0.1268190000 -1.7588030000
H 0.4734540000 1.6706900000 0.4787050000
O -2.7524660000 0.2957150000 0.1250400000
H -2.5080140000 1.2271960000 0.0841900000
H 2.6699010000 -0.0810040000 -1.4646940000
H 1.7633460000 -1.9512050000 -0.2422060000
H -1.0538310000 -0.9555430000 1.6307430000
H -1.8159040000 -1.9964210000 -0.4162410000
