9
0 2
C 1.9250760000 0.1543470000 0.0000130000
N 0.6335560000 -0.3733230000 0.0000340000
C -0.5319270000 0.3979810000 0.0000400000
O 2.9078310000 -0.5414190000 -0.0000600000
H 1.9280040000 1.2522620000 -0.0000520000
O -0.5125280000 1.6078860000 0.0000020000
H 0.5730140000 -1.3843960000 0.0000370000
P -2.1022440000 -0.6409080000 -0.0000050000
H -2.9235700000 0.5133100000 -0.0000050000
