13
0 2
C 0.2074600000 -0.6778290000 0.0001410000
O 0.2364850000 -1.8875070000 0.0000110000
C -1.0446780000 0.0918480000 0.0000390000
O 1.2861550000 0.1231240000 0.0001000000
Cl -2.5269900000 -0.7476100000 -0.0001470000
Cl -1.0869710000 1.8004340000 0.0000190000
C 2.5699380000 -0.5526430000 0.0000360000
C 3.6427220000 0.5156750000 -0.0000040000
H 2.6246730000 -1.1942780000 -0.8824720000
H 2.6247510000 -1.1942900000 0.8825310000
H 3.5621990000 1.1487150000 -0.8860360000
H 4.6296650000 0.0459080000 -0.0000510000
H 3.5622780000 1.1487020000 0.8860440000
