12
0 1
C -1.0570500000 -0.5083840000 -0.4307180000
Si 0.7321150000 -0.5708990000 0.1663200000
N 1.4115940000 0.9624590000 -0.2240010000
H 1.4995300000 -1.6416170000 -0.5168850000
H 0.7088750000 -0.9143330000 1.6208330000
N -1.7235590000 0.6388750000 0.2252060000
H -1.8721010000 0.4377800000 1.2095300000
H -2.6423530000 0.7996570000 -0.1762910000
H 0.8047840000 1.7586490000 -0.0751420000
H 2.3730210000 1.1861140000 -0.0134730000
H -1.5660760000 -1.4755820000 -0.2929370000
H -1.0292460000 -0.3171230000 -1.5082470000
