14
0 1
N 0.2631750000 -0.6195120000 -0.0000080000
C -1.1207940000 1.4445980000 0.0000010000
C -0.8720910000 -0.0530450000 -0.0000180000
C -2.1278310000 -0.9001480000 0.0000050000
Si 1.9014200000 -0.0670200000 0.0000050000
H -0.1932720000 2.0157480000 0.0000050000
H -1.7108050000 1.7273410000 0.8780890000
H -1.7108080000 1.7273590000 -0.8780800000
H -1.8649130000 -1.9563890000 0.0000120000
H -2.7420280000 -0.6761220000 -0.8790720000
H -2.7420110000 -0.6761080000 0.8790900000
H 2.5522410000 -0.6216590000 -1.2076690000
H 2.5522230000 -0.6216540000 1.2076900000
H 2.1215620000 1.4079140000 0.0000030000
