10
0 1
N -1.9270770000 0.0852250000 -0.0000010000
C -0.7433410000 -0.7560550000 0.0000040000
C 0.6361440000 -0.0989730000 -0.0000390000
H -0.7607530000 -1.4196760000 -0.8699880000
H -0.7607280000 -1.4196280000 0.8700340000
O 1.6769590000 -0.7036980000 0.0000140000
O 0.5745830000 1.2556060000 0.0000080000
H 1.4921290000 1.5679930000 0.0000320000
H -1.9251430000 0.6948030000 -0.8110520000
H -1.9251220000 0.6948450000 0.8110180000
