15
0 1
Si 0.7511010000 -0.0000020000 -0.4466230000
B -1.2340060000 -0.0000110000 0.0221760000
O -2.2577140000 -0.0000070000 -0.8921020000
O -1.5756030000 0.0000070000 1.3429010000
C 1.6038720000 -1.5479700000 0.2195720000
H 1.1669940000 -2.4569710000 -0.2031850000
H 1.4995570000 -1.6034920000 1.3069450000
C 1.6038580000 1.5479790000 0.2195590000
H 1.4995430000 1.6035090000 1.3069320000
H 1.1669720000 2.4569720000 -0.2032050000
H 2.6713780000 1.5460120000 -0.0194480000
H 2.6713910000 -1.5459950000 -0.0194350000
H -1.9514590000 -0.0000070000 -1.8026010000
H -2.5336430000 0.0000100000 1.4706740000
H 0.8840410000 -0.0000080000 -1.9360110000
