20
0 1
C -1.6164970000 0.9894960000 -0.0000060000
C -0.4363560000 -0.0005790000 -0.0000010000
H -2.5743110000 0.4599950000 -0.0000060000
H -1.5907000000 1.6340700000 -0.8843420000
H -1.5907020000 1.6340770000 0.8843240000
C 0.8783800000 0.8228850000 -0.0000020000
C 2.1923360000 0.0335600000 0.0000030000
H 0.8635420000 1.4836760000 0.8755550000
H 0.8635440000 1.4836690000 -0.8755640000
H 2.2884430000 -0.6032860000 0.8832130000
H 3.0449750000 0.7183540000 0.0000020000
H 2.2884460000 -0.6032930000 -0.8832010000
C -0.5289630000 -0.8843620000 -1.2579310000
H -0.4488180000 -0.2827490000 -2.1691350000
H -1.4879390000 -1.4107360000 -1.2900590000
H 0.2603510000 -1.6401060000 -1.2837700000
C -0.5289670000 -0.8843520000 1.2579360000
H -0.4488250000 -0.2827320000 2.1691360000
H 0.2603470000 -1.6400960000 1.2837840000
H -1.4879430000 -1.4107260000 1.2900660000
