9
0 2
C 0.4354770000 -0.0343240000 -0.3520920000
O 1.1056930000 -1.0243990000 0.4362790000
O 2.1198570000 -1.5579740000 -0.2227090000
C -1.0608720000 -0.1408020000 -0.0197700000
Cl 1.0769260000 1.5865380000 0.0125910000
H 0.6072060000 -0.2504890000 -1.4034790000
F -1.7555620000 0.7519070000 -0.7369330000
F -1.4909340000 -1.3699400000 -0.3489630000
F -1.3053910000 0.0612660000 1.2761220000
