36
0 1
Si -0.6455120000 1.4209730000 0.0189140000
C -1.9221660000 0.2672790000 -0.7836250000
C 1.0155950000 0.5802070000 0.3175400000
C 1.7040100000 -0.0677070000 -0.7223710000
C 2.9480700000 -0.6725670000 -0.5334950000
C 3.5193140000 -0.6245260000 0.7443320000
C 2.8626650000 0.0106460000 1.7920240000
C 1.6207260000 0.6092070000 1.5811680000
H 1.1200010000 1.1001790000 2.4096040000
H 1.2634040000 -0.1069910000 -1.7157870000
H 3.3181390000 0.0395580000 2.7762480000
C -0.4119840000 2.9008040000 -1.1255280000
H -1.1115270000 1.9122180000 1.3420350000
H -0.0631410000 2.5863470000 -2.1140230000
H 0.3279380000 3.5949090000 -0.7180010000
H -1.3508430000 3.4464190000 -1.2602050000
C -2.6836470000 -0.8045260000 0.0460250000
H -1.4018290000 -0.2340940000 -1.6120170000
H -2.6625120000 0.9195980000 -1.2666630000
C -3.5618340000 -1.6314730000 -0.9151150000
H -4.2743930000 -0.9925320000 -1.4461170000
H -4.1328620000 -2.3907710000 -0.3709930000
H -2.9500440000 -2.1448720000 -1.6634780000
C -1.7031230000 -1.7521830000 0.7605530000
H -1.0255370000 -2.2328590000 0.0487330000
H -2.2479280000 -2.5403890000 1.2898190000
H -1.0882980000 -1.2239590000 1.4939520000
C -3.5958120000 -0.1281930000 1.0868090000
H -4.3098460000 0.5468830000 0.6040580000
H -3.0211220000 0.4545820000 1.8106210000
H -4.1692080000 -0.8773800000 1.6415660000
H 4.4854690000 -1.0893870000 0.9163000000
C 3.6670230000 -1.3599240000 -1.6701170000
H 3.0774790000 -1.3324920000 -2.5886920000
H 3.8709920000 -2.4089180000 -1.4342280000
H 4.6298000000 -0.8819380000 -1.8767340000
