15
0 1
S 1.8329260000 0.0000970000 -0.6908270000
Si 0.4551010000 -0.0001390000 0.9942610000
H 2.9421840000 -0.0000250000 0.0693360000
C -1.3129010000 -0.0000430000 0.3238140000
C -1.6483490000 -1.2744330000 -0.4732510000
H -1.0604320000 -1.3365530000 -1.3936930000
H -2.7055510000 -1.2813020000 -0.7589280000
H -1.4548940000 -2.1823800000 0.1045020000
C -1.6483430000 1.2745650000 -0.4729030000
H -1.0604260000 1.3369340000 -1.3933270000
H -1.4548830000 2.1823540000 0.1050990000
H -2.7055450000 1.2815180000 -0.7585770000
H -1.9299820000 -0.0001660000 1.2345460000
H 0.6944270000 1.2014460000 1.8294990000
H 0.6944260000 -1.2019600000 1.8291600000
