19
0 1
C -1.3080620000 0.2073130000 0.0558930000
C -1.9475990000 -0.0034190000 1.2791710000
H -1.5972910000 0.5224370000 2.1592360000
C -3.0228110000 -0.8836690000 1.3470850000
H -3.5195650000 -1.0544040000 2.2948030000
C -3.4584800000 -1.5438870000 0.1983980000
H -4.2959490000 -2.2295410000 0.2544880000
C -2.8225920000 -1.3223270000 -1.0219530000
H -3.1634010000 -1.8335290000 -1.9144370000
C -1.7487460000 -0.4398840000 -1.0996710000
H -1.2483960000 -0.2506800000 -2.0414370000
N -0.1990020000 1.1118780000 -0.0102460000
Cl -0.6053730000 2.7883950000 -0.2669090000
C 1.1519010000 0.8152960000 -0.0358890000
O 2.0252760000 1.6250190000 -0.1868450000
C 1.4432320000 -0.6910350000 0.1645430000
Cl 1.9258720000 -1.3927140000 -1.4199740000
Cl 2.7210520000 -0.8960650000 1.3919270000
H 0.5879860000 -1.2613820000 0.5026390000
