11
0 2
Si 1.8527350000 -0.0077700000 -0.0687750000
N 0.2223820000 -0.6725060000 -0.0015370000
H 2.0799040000 0.9458860000 1.0434180000
H 2.7219000000 -1.2065610000 0.0745000000
C -0.8809340000 0.1598340000 -0.0154950000
O -0.7407760000 1.3679650000 -0.0622110000
H 0.0553910000 -1.6697150000 -0.0157360000
C -2.2374240000 -0.5169160000 0.0453720000
H -2.3476610000 -1.2431290000 -0.7650760000
H -3.0139320000 0.2404180000 -0.0374100000
H -2.3542040000 -1.0518040000 0.9923440000
