8
0 1
C 1.2848130000 -0.6932740000 -0.0000250000
Si -0.0445150000 0.6487930000 0.0000210000
Cl -1.9054430000 -0.2927580000 -0.0000110000
H 0.0515480000 1.4767310000 -1.2153120000
H 0.0515490000 1.4766470000 1.2154120000
F 2.5265200000 -0.0268240000 0.0000040000
H 1.2325400000 -1.3292400000 -0.8880990000
H 1.2325340000 -1.3293070000 0.8880020000
