17
0 2
Si 1.5366700000 -0.0000000000 0.0703840000
C 0.4422110000 1.5019420000 -0.2997220000
C -0.9826550000 1.2944170000 0.2739790000
C -1.6651690000 0.0000000000 -0.2008630000
C -0.9826550000 -1.2944170000 0.2739790000
C 0.4422110000 -1.5019420000 -0.2997220000
H 0.3801520000 1.6347060000 -1.3864970000
H 0.8886080000 2.4176690000 0.0994430000
H -1.6095040000 2.1510700000 -0.0012950000
H -0.9370940000 1.2902900000 1.3700160000
H -1.7173830000 0.0000000000 -1.2977980000
H -2.7017640000 0.0000000000 0.1531600000
H -1.6095050000 -2.1510700000 -0.0012950000
H -0.9370940000 -1.2902900000 1.3700160000
H 0.3801520000 -1.6347060000 -1.3864970000
H 0.8886070000 -2.4176690000 0.0994430000
H 1.9377760000 -0.0000000000 1.5100250000
