7
0 2
Si 1.9320820000 0.0000000000 -0.0727540000
Si -0.3902010000 0.0000000000 0.0044250000
F -0.9706580000 -1.2821140000 -0.7368390000
F -1.0180210000 -0.0000010000 1.4672150000
F -0.9706580000 1.2821150000 -0.7368370000
H 2.5238550000 -1.2264430000 0.5073750000
H 2.5238550000 1.2264430000 0.5073760000
