12
0 1
Si 0.0862260000 1.1419500000 -0.1942520000
C -1.5449050000 0.6719150000 0.6285610000
C 1.3425440000 -0.2470010000 0.2174190000
O 1.2938320000 -1.0162030000 1.1161420000
H 0.6310730000 2.3636130000 0.4396660000
H -0.0161690000 1.3344510000 -1.6502600000
F 2.4185750000 -0.2578360000 -0.6402370000
C -2.1482320000 -0.5685970000 0.0135140000
O -1.6320100000 -1.1814120000 -0.8882910000
H -3.1167720000 -0.9047540000 0.4384070000
H -2.2732740000 1.4909660000 0.5739380000
H -1.3902130000 0.4919560000 1.7001350000
