23
0 1
C 2.3722320000 0.8136870000 -0.1064590000
O 1.5612130000 1.5893690000 -0.5118030000
O 2.2675200000 -0.5644190000 -0.2431660000
S 0.8473670000 -1.1835340000 -0.9234860000
C -0.2578780000 -1.0022980000 0.4874540000
O 0.0957460000 -0.4986270000 1.5178580000
C 3.6458060000 1.1298420000 0.6301670000
H 3.8216610000 2.2029210000 0.5961100000
H 4.4867330000 0.5863800000 0.1973750000
H 3.5367020000 0.8051820000 1.6676620000
C -1.6501280000 -1.5267570000 0.1941050000
C -2.7280010000 -0.4664800000 0.4834630000
H -1.7966030000 -2.3997400000 0.8392670000
H -1.7148700000 -1.8752530000 -0.8434900000
C -2.6800200000 0.7369930000 -0.4652900000
H -2.6044020000 -0.1286470000 1.5168610000
H -3.7098510000 -0.9480190000 0.4213380000
C -3.7622760000 1.7744290000 -0.1554110000
H -2.7929000000 0.3871030000 -1.4987660000
H -1.6942920000 1.2108900000 -0.4088220000
H -4.7643650000 1.3414640000 -0.2374900000
H -3.7076880000 2.6201450000 -0.8454510000
H -3.6522420000 2.1670460000 0.8599050000
