7
0 1
B -1.6783770000 0.4098880000 0.0000020000
C 0.7305820000 -0.0815590000 -0.0000180000
N 1.8408610000 0.2368000000 0.0000170000
N -0.5631850000 -0.4627460000 -0.0000050000
H -1.4855220000 1.5783780000 -0.0000030000
H -2.7547020000 -0.0893890000 0.0000150000
H -0.6951080000 -1.4674480000 0.0000040000
