15
0 1
C -1.4319500000 -0.2593570000 -0.1357250000
C -1.2837930000 1.2597640000 -0.1678370000
P -0.0000000000 -1.2158490000 0.6260880000
C 1.4319500000 -0.2593570000 -0.1357240000
C 1.2837930000 1.2597640000 -0.1678370000
C -0.0000000000 1.8041910000 0.4733230000
H 1.3400930000 1.5465800000 -1.2252230000
H 2.1748670000 1.6792010000 0.3094310000
H -0.0000000000 2.8937730000 0.3910530000
H 0.0000000000 1.5844550000 1.5469030000
H -2.1748670000 1.6792000000 0.3094310000
H -1.3400940000 1.5465810000 -1.2252230000
O 2.4208260000 -0.8260460000 -0.5267400000
O -2.4208260000 -0.8260460000 -0.5267400000
H 0.0000000000 -2.3053520000 -0.2670540000
