19
0 1
S -1.2313510000 0.4072520000 -0.3713890000
O -1.5253750000 1.8214760000 -0.3144620000
N -1.8647370000 -0.1796190000 1.0852790000
C 0.5180900000 0.1479010000 -0.1530910000
C 1.2705480000 1.1293220000 0.4903290000
C 2.6383690000 0.9318770000 0.6502000000
C 3.2374080000 -0.2339470000 0.1725200000
C 2.4730360000 -1.2045190000 -0.4725770000
C 1.1035310000 -1.0170310000 -0.6432610000
H 2.9425700000 -2.1058370000 -0.8490710000
H 0.4921480000 -1.7498050000 -1.1520230000
H 0.7875280000 2.0320300000 0.8413090000
H 3.2372000000 1.6896020000 1.1419700000
H 4.3039650000 -0.3824720000 0.2981580000
O -1.6685480000 -0.4075530000 -1.4809740000
N -1.9378070000 -1.5847210000 1.1457800000
H -2.7196710000 0.3439400000 1.2757600000
H -1.8143010000 -1.8788900000 2.1058790000
H -2.8045290000 -1.9472190000 0.7616080000
