20
0 1
Si 1.1257460000 1.7409840000 -0.3477230000
Si -1.1257850000 1.7409850000 0.3477400000
C -1.9135200000 0.0657870000 -0.1176070000
H -1.8685250000 2.7822860000 -0.4027540000
H -1.2672970000 2.0003240000 1.7980980000
S -1.7020590000 -0.5808960000 -1.6150910000
O -2.6255220000 -0.4667010000 0.8719450000
C -3.2863680000 -1.7356120000 0.6755300000
H -3.7797490000 -1.9435010000 1.6217630000
H -2.5518770000 -2.5059700000 0.4371540000
H -4.0091970000 -1.6603830000 -0.1379380000
C 1.9134670000 0.0657690000 0.1175870000
H 1.8684930000 2.7822670000 0.4027920000
H 1.2672600000 2.0003520000 -1.7980760000
S 1.7020820000 -0.5808980000 1.6150890000
O 2.6255210000 -0.4666700000 -0.8719530000
C 3.2864270000 -1.7355500000 -0.6755370000
H 3.7798450000 -1.9434000000 -1.6217590000
H 2.5519690000 -2.5059480000 -0.4371930000
H 4.0092290000 -1.6602950000 0.1379520000
