17
0 1
B -2.5871850000 -0.3896680000 -0.0562940000
B -2.7190560000 1.0609850000 0.7649130000
O -1.4359520000 -1.0079210000 -0.4513330000
C -0.1819670000 -0.4607290000 -0.2512560000
C 0.8349860000 -1.3149930000 0.1688940000
C 0.0769910000 0.8880310000 -0.4894750000
C 2.1127350000 -0.8063740000 0.3780480000
C 2.3801120000 0.5461530000 0.1638790000
C 1.3611900000 1.3878640000 -0.2722920000
H 0.6064780000 -2.3611210000 0.3311230000
H 2.9024390000 -1.4694030000 0.7125500000
H 3.3773590000 0.9370540000 0.3271060000
H 1.5624710000 2.4365330000 -0.4586100000
H -0.7058110000 1.5319070000 -0.8750910000
H -2.6133530000 1.1228180000 1.9544030000
H -3.0337100000 2.0771730000 0.2181660000
H -3.5813260000 -1.0078900000 -0.3288630000
