22
0 1
F 0.9280990000 2.1225460000 0.0000000000
N -0.0871810000 1.0504850000 0.0000000000
C 0.0740330000 0.3418200000 1.2203390000
C 0.0740330000 -0.9953700000 1.2319970000
C -0.0115750000 -1.8495640000 -0.0000000000
C 0.1174520000 1.2087400000 2.4445510000
C -1.2937810000 -2.7148590000 -0.0000000000
H 0.0705180000 -1.4994280000 2.1935050000
H 1.0269380000 1.8122590000 2.4607660000
H -0.7307390000 1.8991490000 2.4522720000
H 0.0862450000 0.5945290000 3.3450460000
H -1.3285300000 -3.3569550000 0.8850960000
H -1.3285300000 -3.3569550000 -0.8850960000
C 0.0740330000 -0.9953700000 -1.2319970000
C 0.0740330000 0.3418200000 -1.2203390000
C 0.1174520000 1.2087400000 -2.4445510000
H 1.0269380000 1.8122590000 -2.4607660000
H -0.7307390000 1.8991490000 -2.4522720000
H 0.0862450000 0.5945290000 -3.3450460000
H 0.0705180000 -1.4994280000 -2.1935050000
H -2.1839630000 -2.0811040000 -0.0000000000
H 0.8383910000 -2.5500580000 -0.0000000000
