12
0 1
C 0.0000000000 1.1889230000 -1.4870670000
C 0.0000000000 1.2130390000 -0.1296140000
N 0.0000000000 -0.0000000000 -2.1681810000
C -0.0000000000 -1.1889230000 -1.4870670000
C -0.0000000000 -1.2130390000 -0.1296140000
C -0.0000000000 0.0000000000 0.6536960000
H 0.0000000000 -0.0000000000 -3.1752630000
H 0.0000000000 2.0845470000 -2.0942270000
H 0.0000000000 2.1630640000 0.3870080000
S -0.0000000000 0.0000000000 2.3278100000
H -0.0000000000 -2.1630640000 0.3870080000
H -0.0000000000 -2.0845470000 -2.0942270000
