12
0 1
C 0.4792180000 0.5867330000 0.2081640000
P -1.1656520000 -0.2091220000 -0.2312310000
N 1.6488030000 -0.4031260000 -0.0990040000
O -1.1825540000 -0.5714710000 -1.6447660000
O -1.3525210000 -1.2945680000 0.8996710000
O 1.4495480000 -1.5492660000 0.2870240000
O 2.6299460000 0.0255950000 -0.6455810000
F 0.6923450000 1.6935070000 -0.5018560000
F 0.5957190000 0.8715450000 1.5178110000
H -0.6080730000 -1.9175390000 0.9171700000
O -2.2073750000 0.8781710000 0.2678850000
H -2.6130020000 1.3627040000 -0.4621170000
