7
0 1
C 0.1045720000 -0.5850430000 0.0000000000
N -0.7155450000 0.6627080000 -0.0000000000
F 1.4090440000 -0.3495300000 0.0000000000
F -0.2305560000 -1.2643440000 1.0872690000
F -0.2305560000 -1.2643440000 -1.0872690000
F -0.2305560000 1.3764040000 1.0920950000
F -0.2305560000 1.3764040000 -1.0920950000
