23
0 1
P 2.5873280000 -0.0000000000 -0.0150280000
C 2.1213030000 1.4332580000 -1.1193920000
C -0.8782510000 -0.0000010000 0.6118100000
C 2.1213020000 -1.4332560000 -1.1193950000
H 2.8248860000 -1.4696760000 -1.9551970000
H 1.1062820000 -1.3629700000 -1.5179820000
H 2.2218390000 -2.3678180000 -0.5625570000
H 1.1062820000 1.3629730000 -1.5179790000
H 2.8248870000 1.4696800000 -1.9551930000
H 2.2218400000 2.3678190000 -0.5625510000
C -1.5229230000 1.2033170000 0.2788660000
C -1.5229230000 -1.2033170000 0.2788650000
C -2.7604680000 -1.2053110000 -0.3609050000
C -3.3811060000 0.0000010000 -0.6830970000
C -2.7604680000 1.2053120000 -0.3609040000
H -3.2423810000 2.1461840000 -0.6033410000
H -1.0598000000 2.1520690000 0.5318150000
H -3.2423830000 -2.1461820000 -0.6033430000
H -4.3456990000 0.0000020000 -1.1784260000
H -1.0598010000 -2.1520690000 0.5318130000
Si 0.8170200000 -0.0000020000 1.4231530000
H 0.9485250000 -1.2119490000 2.2695640000
H 0.9485260000 1.2119430000 2.2695670000
