20
0 2
C -1.7874050000 0.1242500000 -0.0406520000
O -2.4086670000 -1.0888880000 -0.1533900000
O -2.4050480000 1.1652400000 -0.1919420000
H -3.3324710000 -0.8883820000 -0.3584390000
C -0.3735220000 0.0306870000 0.2663200000
C 0.4121370000 1.2894310000 0.4408460000
C 0.3425010000 -1.2699530000 0.4450890000
C 1.7451830000 1.2409230000 -0.3388860000
H 0.6456920000 1.4095930000 1.5114430000
H -0.1925350000 2.1489570000 0.1505130000
C 2.5254610000 -0.0456300000 -0.0417350000
H 2.3443570000 2.1216330000 -0.0894730000
H 1.5317490000 1.2976900000 -1.4126190000
C 1.6795310000 -1.2913050000 -0.3323550000
H 2.8312310000 -0.0509130000 1.0127240000
H 3.4462990000 -0.0721160000 -0.6329360000
H 1.4643310000 -1.3421580000 -1.4060560000
H 2.2316050000 -2.2009330000 -0.0777830000
H -0.2921630000 -2.1071840000 0.1568660000
H 0.5683050000 -1.3974290000 1.5166600000
