25
0 1
O -0.4290480000 -0.4099540000 0.1223330000
C 0.4325250000 0.6125460000 -0.1728860000
C -1.8124720000 -0.2265020000 0.0719320000
O 0.0791130000 1.7175660000 -0.4913040000
C 1.8510500000 0.1752080000 -0.0515930000
C -2.4510420000 0.8398490000 0.6983000000
C -2.5378740000 -1.2225880000 -0.5729450000
C -3.9281070000 -1.1508850000 -0.5944970000
C -4.5840340000 -0.0882100000 0.0230750000
C -3.8422210000 0.9009480000 0.6658830000
H -4.3465730000 1.7303660000 1.1483270000
H -1.8737830000 1.6108510000 1.1879010000
H -4.4960280000 -1.9262250000 -1.0957390000
H -5.6660800000 -0.0309930000 0.0043630000
H -2.0062530000 -2.0393260000 -1.0457020000
C 2.2123190000 -1.1148970000 0.3530390000
C 2.8446600000 1.1119280000 -0.3579430000
C 4.1859970000 0.7619850000 -0.2620570000
C 4.5434240000 -0.5242670000 0.1420250000
C 3.5566220000 -1.4598680000 0.4493580000
H 1.4412570000 -1.8353250000 0.5900850000
H 3.8351190000 -2.4590340000 0.7640610000
H 2.5437340000 2.1047600000 -0.6681040000
H 4.9528970000 1.4896800000 -0.5010720000
H 5.5901220000 -0.7971260000 0.2175030000
