10
0 1
C 0.3812960000 -0.0769010000 -0.3522630000
O 1.0095450000 -1.0525790000 0.3912640000
O 2.2764410000 -1.3418120000 -0.2391090000
H 2.8822990000 -0.8647270000 0.3494030000
C -1.1186400000 -0.1621290000 -0.0201780000
Cl 1.0217470000 1.5911310000 0.0217710000
H 0.5312710000 -0.2232150000 -1.4202720000
F -1.7963790000 0.7817860000 -0.6873280000
F -1.5858220000 -1.3599090000 -0.4081450000
F -1.3563640000 -0.0187630000 1.2863800000
