10
0 1
B 0.6902030000 -0.9501170000 0.4434120000
B -0.6902830000 -0.9502940000 -0.4430350000
C 1.9482810000 -0.0939080000 0.0559640000
O 2.8355620000 -0.4008740000 -0.6636600000
F 1.9283130000 1.1308840000 0.6766480000
C -1.9483450000 -0.0938880000 -0.0559750000
O -2.8358740000 -0.4007090000 0.6634060000
F -1.9279860000 1.1309180000 -0.6766200000
H -0.8077840000 -1.6572050000 -1.3948290000
H 0.8081180000 -1.6575230000 1.3947860000
