11
0 1
C 0.6340420000 0.6597870000 -0.2673450000
C -0.7956320000 0.5584650000 0.2639860000
N 1.3578870000 -0.5619120000 0.1204540000
O -1.4013600000 -0.6449470000 -0.1676550000
H -0.6932660000 -1.3033330000 -0.0992540000
H 1.1051350000 1.5917640000 0.0793150000
H 0.5971030000 0.6895070000 -1.3598150000
H 1.6641270000 -0.5089770000 1.0871520000
H 2.1844540000 -0.6986040000 -0.4494180000
H -1.4011850000 1.3904190000 -0.1052520000
H -0.7811560000 0.6226700000 1.3654860000
