18
0 1
B 0.8383250000 0.0000070000 -0.0000100000
B -0.8383250000 -0.0000020000 -0.0000010000
C 1.6553040000 -1.0114070000 -0.9000760000
H 1.8289800000 -1.8986190000 -0.2693510000
H 2.6488840000 -0.6451780000 -1.1820070000
H 1.1412300000 -1.3725810000 -1.7953960000
C -1.6552940000 -1.0114090000 0.9000810000
H -1.8289700000 -1.8986290000 0.2693660000
H -2.6488740000 -0.6451810000 1.1820150000
H -1.1412140000 -1.3725720000 1.7954020000
C 1.6553040000 1.0114110000 0.9000660000
H 2.6488840000 0.6451790000 1.1819940000
H 1.1412310000 1.3725770000 1.7953900000
H 1.8289800000 1.8986290000 0.2693500000
C -1.6553130000 1.0114030000 -0.9000680000
H -2.6488940000 0.6451680000 -1.1819910000
H -1.1412470000 1.3725750000 -1.7953930000
H -1.8289900000 1.8986180000 -0.2693470000
