17
0 1
Cl -2.0132580000 -0.5248960000 -0.0000000000
P -0.0260090000 -1.3006700000 0.0000000000
C 0.7029560000 -0.3307770000 1.4087000000
C 0.7029560000 1.1987130000 1.2814090000
C 1.3838930000 1.6995120000 -0.0000000000
C 0.7029560000 1.1987130000 -1.2814090000
C 0.7029560000 -0.3307770000 -1.4087000000
H 1.7331010000 -0.7090240000 1.4774520000
H 0.1958570000 -0.6563120000 2.3209310000
H 1.2075840000 1.6243210000 -2.1556550000
H -0.3292090000 1.5616240000 -1.3118020000
H 1.7331010000 -0.7090240000 -1.4774520000
H 0.1958570000 -0.6563120000 -2.3209310000
H 1.2075840000 1.6243210000 2.1556550000
H -0.3292090000 1.5616240000 1.3118020000
H 2.4365050000 1.3858500000 0.0000000000
H 1.3900410000 2.7939010000 -0.0000000000
