9
0 2
C 1.7137570000 -0.0000390000 0.1867180000
P -0.0416960000 0.0000000000 0.1028220000
O -0.3397750000 1.2830550000 -0.8179400000
O -0.3398380000 -1.2830250000 -0.8179610000
H -1.1360750000 1.7442140000 -0.5265430000
H -1.1361400000 -1.7441700000 -0.5265460000
O -0.8061820000 0.0000060000 1.3629890000
H 2.2507170000 -0.9336880000 0.2868740000
H 2.2507590000 0.9335860000 0.2868790000
