8
0 1
Si 0.8770060000 -0.7857420000 0.0000000000
Si -0.8770060000 0.7857420000 0.0000000000
H -0.8507040000 1.6310930000 1.2109140000
Cl -2.6815910000 -0.2725020000 0.0000000000
H -0.8507040000 1.6310930000 -1.2109140000
Cl 2.6815910000 0.2725020000 -0.0000010000
H 0.8507040000 -1.6310930000 -1.2109140000
H 0.8507050000 -1.6310930000 1.2109140000
