18
0 1
Si -0.9309800000 -0.0000000000 -0.0455080000
P 1.2554190000 0.0000000000 -0.6505600000
C 1.9046330000 -1.4434300000 0.3405870000
H 1.7333560000 -1.3383110000 1.4148520000
H 2.9783870000 -1.5454170000 0.1662140000
H 1.4205800000 -2.3600990000 -0.0027830000
O -1.5977150000 1.3840890000 -0.6667690000
C -1.3644020000 -0.0000020000 1.7608230000
H -0.9730270000 -0.8878000000 2.2627810000
H -2.4526460000 -0.0000040000 1.8718150000
H -0.9730300000 0.8877980000 2.2627820000
C 1.9046330000 1.4434300000 0.3405870000
H 1.4205790000 2.3600990000 -0.0027830000
H 2.9783870000 1.5454180000 0.1662130000
H 1.7333560000 1.3383120000 1.4148520000
H -1.3846230000 1.6267390000 -1.5710500000
O -1.5977160000 -1.3840880000 -0.6667720000
H -1.3846190000 -1.6267390000 -1.5710520000
