16
0 1
C -2.7309520000 -0.3944620000 0.0000040000
C -2.3459120000 0.9444920000 0.0000060000
C -1.0009440000 1.2949590000 0.0000020000
C -1.7423990000 -1.3759660000 -0.0000030000
C -0.3927520000 -1.0382740000 -0.0000070000
C -0.0016720000 0.3087580000 -0.0000050000
H -3.7794020000 -0.6670640000 0.0000070000
H -3.0965730000 1.7272860000 0.0000110000
H -0.7156630000 2.3428660000 0.0000040000
H -2.0202870000 -2.4243810000 -0.0000040000
H 0.3576260000 -1.8189500000 -0.0000120000
N 1.3433920000 0.7094200000 -0.0000100000
P 2.7140390000 -0.3233730000 0.0000040000
H 1.4738290000 1.7099400000 -0.0000090000
H 3.4769510000 0.2889590000 1.0321050000
H 3.4769690000 0.2889610000 -1.0320820000
