7
0 1
S 1.1770830000 1.3888410000 -0.0000060000
B -0.0091600000 0.0104180000 -0.0000450000
S 0.6289920000 -1.6957770000 0.0000100000
S -1.8239670000 0.1469500000 0.0000060000
H 1.9383670000 -1.3909130000 0.0000260000
H 0.3058160000 2.4118070000 0.0000150000
H -1.9121150000 1.4867870000 0.0000280000
