10
0 1
P 1.6008930000 -0.1534980000 -0.0000010000
Si -0.5461610000 0.6208020000 0.0000010000
C -1.8813970000 -0.7040710000 0.0000000000
H -1.8009650000 -1.3407000000 -0.8848420000
H -2.8751230000 -0.2460640000 0.0000020000
H -1.8009640000 -1.3407020000 0.8848420000
H 1.3796730000 -1.0999480000 -1.0363460000
H 1.3796740000 -1.0999500000 1.0363430000
H -0.6805310000 1.4815170000 -1.2012380000
H -0.6805300000 1.4815160000 1.2012400000
