11
0 1
O 1.2421670000 0.6584950000 -0.4672690000
B 2.4430060000 -0.0401270000 -0.2203320000
O 3.4825740000 0.7871160000 0.0343370000
O 2.5563600000 -1.3887060000 -0.2418070000
O 0.1961860000 -0.2973450000 -0.7850920000
C -0.9259650000 -0.0043060000 -0.0381500000
Cl -2.0905990000 -1.2412290000 -0.5827850000
Cl -1.5548210000 1.6368380000 -0.3683920000
Cl -0.6193930000 -0.1788500000 1.7301850000
H 1.7274920000 -1.8383520000 -0.4348730000
H 4.2967870000 0.3034340000 0.2009470000
