9
0 2
Si -1.8460090000 0.1292260000 -0.0542910000
P 0.4133660000 0.0609500000 0.1162950000
H -2.3618800000 -0.7565680000 -1.1240360000
H -2.4700220000 -0.1514450000 1.2580550000
O 0.7160110000 -1.5167070000 0.1705750000
H 1.6524860000 -1.7267180000 0.2971360000
O 0.9818820000 0.4381450000 -1.3576650000
H 1.3294690000 1.3390240000 -1.3675820000
O 0.9888050000 0.9000990000 1.1810990000
