20
0 1
F 2.5011290000 -1.0044920000 -0.6684700000
P 1.0314420000 -1.7316740000 -0.6323630000
C 0.6416960000 -1.5676920000 1.1472870000
C 0.0529580000 -0.4320050000 0.3422520000
C 0.7042460000 0.9190100000 0.4965770000
O 1.3519110000 1.2503160000 1.4569640000
O 0.5048280000 1.6869920000 -0.5836460000
C 1.0747150000 3.0076640000 -0.5195450000
C -1.4097750000 -0.5548390000 0.0677980000
O -1.9470780000 -1.6282210000 -0.0981680000
O -2.0535730000 0.6182580000 0.0528640000
C -3.4689000000 0.5507000000 -0.2149340000
H 1.4663520000 -1.2838710000 1.7918180000
H -0.0567340000 -2.2896640000 1.5536540000
H 2.1570080000 2.9470650000 -0.3990270000
H 0.6503080000 3.5647920000 0.3169120000
H 0.8175620000 3.4791500000 -1.4650310000
H -3.9720680000 -0.0446250000 0.5477290000
H -3.8145870000 1.5811780000 -0.1908030000
H -3.6479800000 0.1057390000 -1.1942990000
