10
0 1
N 0.4841460000 0.5413870000 -0.0660600000
Si -1.1098830000 -0.1037210000 0.0043430000
C 1.7041980000 -0.2557780000 0.0176580000
H 0.6115620000 1.5027790000 0.2154230000
H 1.5441840000 -1.2212520000 -0.4706650000
H 2.0319380000 -0.4561120000 1.0474390000
H 2.5260460000 0.2378290000 -0.5101180000
H -1.2562380000 -1.1450800000 -1.0415870000
H -2.0410770000 1.0213730000 -0.2409260000
H -1.4922620000 -0.7424820000 1.2961080000
