13
0 1
C 2.4232580000 0.6239400000 0.0000050000
C 1.2416230000 1.3542550000 0.0000060000
C 0.0136890000 0.6968810000 0.0000020000
C 2.3701200000 -0.7690220000 -0.0000000000
C 1.1447100000 -1.4195970000 -0.0000040000
C -0.0611600000 -0.7026600000 -0.0000020000
H 3.3749880000 1.1410270000 0.0000070000
H 1.2574060000 2.4365580000 0.0000090000
Cl -1.4391510000 1.6880290000 0.0000040000
H 3.2836980000 -1.3516650000 -0.0000010000
H 1.1084150000 -2.5031480000 -0.0000080000
S -1.5588020000 -1.6563230000 -0.0000070000
H -2.4115530000 -0.6208820000 -0.0000080000
