17
0 1
C 0.0186160000 0.0005360000 0.2140600000
N -0.0709550000 1.3635070000 -0.5200830000
O -1.0649580000 1.5405880000 -1.1880460000
O 0.8611550000 2.1229920000 -0.3639310000
C 0.9370090000 -0.0063330000 1.4239870000
N -1.4456680000 -0.3073880000 0.6171540000
O -1.8383380000 0.3395180000 1.5678690000
O -2.0584640000 -1.1159890000 -0.0367740000
N 0.4562880000 -1.0518320000 -0.8187960000
O 0.7246880000 -0.6661500000 -1.9346970000
O 0.5332660000 -2.1796460000 -0.3795820000
C 2.4400230000 -0.0293370000 1.1165470000
H 0.6657570000 -0.8933200000 2.0011110000
H 0.6665990000 0.8644130000 2.0222730000
H 2.7251920000 -0.9409240000 0.5878570000
H 2.9848110000 -0.0154270000 2.0620900000
H 2.7473100000 0.8355440000 0.5324700000
