10
0 1
Si 2.3537360000 -0.5367220000 0.0052850000
C 1.2172420000 0.9918800000 -0.1486690000
H 3.7125770000 -0.1354150000 -0.4263470000
H 1.8402730000 -1.6155430000 -0.8648710000
H 2.3796770000 -0.9875750000 1.4124670000
N -0.1245340000 0.7035100000 0.2460990000
C -1.2069340000 0.2472880000 0.0823340000
S -2.6820200000 -0.3288860000 -0.0514280000
H 1.2278250000 1.3616700000 -1.1807190000
H 1.6095590000 1.7935600000 0.4836530000
