13
0 1
P -0.0956890000 0.6243810000 0.7374900000
B 1.4445590000 -0.3386380000 -0.0110580000
N -1.4235340000 -0.4362920000 -0.0107440000
O 2.5497950000 0.4298430000 -0.1936090000
O 1.4368330000 -1.6656840000 -0.2399150000
O -1.2958920000 -1.6606090000 0.1226980000
O -2.3928570000 0.0978790000 -0.5145160000
C -0.2282470000 2.1093710000 -0.3492510000
H -1.0492300000 2.7436870000 -0.0175220000
H -0.3659150000 1.8517780000 -1.3991380000
H 0.7130060000 2.6536910000 -0.2347900000
H 3.3106150000 -0.0836600000 -0.4924460000
H 0.5552470000 -2.0516370000 -0.0897180000
