31
0 1
C 0.0000000000 -0.0000000000 1.9106930000
O -0.7663230000 -0.8957850000 1.1494710000
O 0.7663230000 0.8957850000 1.1494710000
H 0.7225440000 -0.5380330000 2.5362770000
H -0.7225440000 0.5380330000 2.5362770000
C -0.0000000000 -1.8788980000 0.4518430000
C 0.0000000000 1.8788980000 0.4518430000
C 0.9487510000 2.8666670000 -0.2229010000
H -0.6503170000 2.4055420000 1.1663810000
H -0.6448650000 1.3963750000 -0.2942950000
C 0.1484080000 4.0026890000 -0.8728730000
H -0.5109150000 3.6202160000 -1.6594740000
H 0.8171180000 4.7359710000 -1.3312080000
H -0.4727500000 4.5292650000 -0.1420960000
C 1.8617740000 2.1667310000 -1.2364700000
H 1.5774600000 3.2928560000 0.5685380000
H 1.2744560000 1.7316740000 -2.0530090000
H 2.4266630000 1.3638970000 -0.7602700000
H 2.5713690000 2.8733450000 -1.6762830000
C -0.9487510000 -2.8666670000 -0.2229010000
H 0.6503170000 -2.4055420000 1.1663810000
H 0.6448650000 -1.3963750000 -0.2942950000
C -0.1484080000 -4.0026890000 -0.8728730000
H 0.5109150000 -3.6202160000 -1.6594740000
H -0.8171180000 -4.7359710000 -1.3312080000
H 0.4727500000 -4.5292650000 -0.1420960000
C -1.8617740000 -2.1667310000 -1.2364700000
H -1.5774600000 -3.2928560000 0.5685380000
H -2.5713690000 -2.8733450000 -1.6762830000
H -1.2744560000 -1.7316740000 -2.0530090000
H -2.4266630000 -1.3638970000 -0.7602700000
