14
0 1
C 2.3763840000 0.9689700000 0.0000000000
C 1.3754760000 0.0052580000 0.0000000000
N 2.1426900000 2.2873790000 0.0000000000
C 0.8686860000 2.6791570000 0.0000000000
C -0.2111940000 1.7960920000 0.0000000000
C 0.0456230000 0.4274750000 0.0000000000
H 3.4203440000 0.6701040000 0.0000000000
H 1.6258380000 -1.0483690000 0.0000000000
H 0.6950270000 3.7514560000 0.0000000000
H -1.2262850000 2.1769270000 0.0000000000
C -1.1046150000 -0.5391980000 -0.0000000000
Cl -1.1046150000 -1.5754130000 1.4809850000
Cl -1.1046150000 -1.5754130000 -1.4809850000
H -2.0589800000 -0.0242470000 -0.0000000000
