12
0 1
Si -0.4109390000 -1.5678310000 0.2177890000
C 1.3303200000 -1.2909680000 -0.4673070000
N 1.9858470000 -0.1626280000 0.1589460000
C 1.9949410000 1.0359380000 0.0660120000
O 2.1001900000 2.2026510000 0.0678160000
N -1.3383330000 -0.1625130000 -0.1039620000
H -0.3556040000 -1.7968890000 1.6747960000
H -1.0197500000 -2.7250770000 -0.4730990000
C -2.2003160000 0.6700240000 -0.0689780000
O -3.0215020000 1.4990810000 -0.0662730000
H 1.2908470000 -1.1687090000 -1.5555250000
H 1.9258790000 -2.1875280000 -0.2708110000
