7
0 2
O 0.8094900000 -1.0411220000 0.0017020000
C 0.1061040000 0.0000110000 -0.0081690000
O 0.8095500000 1.0410900000 0.0017020000
C -1.3872910000 0.0000350000 -0.0028050000
H -1.7640730000 -0.8958690000 -0.4984580000
H -1.7640720000 0.8971750000 -0.4962080000
H -1.7370540000 -0.0013250000 1.0332750000
