14
0 1
Cl -2.6667960000 -0.0107750000 -0.5493040000
O -1.6330630000 0.2557590000 0.8680870000
O -0.3751860000 0.7120880000 0.4714400000
C 0.5054890000 -0.3858960000 0.2297700000
O 0.1577470000 -1.5273760000 0.3310850000
N 1.7213030000 0.0982310000 -0.1193300000
C 2.0742690000 1.5142970000 -0.1715510000
H 1.1823590000 2.1323080000 -0.1975580000
H 2.6582080000 1.7021780000 -1.0766800000
H 2.6785520000 1.7987420000 0.6973250000
C 2.8073930000 -0.8561210000 -0.3124420000
H 3.2704950000 -0.6996120000 -1.2911450000
H 2.4059690000 -1.8646230000 -0.2600750000
H 3.5719340000 -0.7308810000 0.4620580000
