9
0 1
Cl 1.7622810000 -0.0880960000 -0.0000020000
O 0.1550700000 -0.7368640000 -0.0000010000
C -0.8798810000 0.2043640000 0.0000010000
C -2.1628290000 -0.5819610000 0.0000020000
N -0.8096450000 1.4544360000 0.0000020000
H -2.2175150000 -1.2217600000 -0.8830700000
H -2.9916030000 0.1226570000 0.0000040000
H -2.2175120000 -1.2217620000 0.8830720000
H 0.1510700000 1.7979430000 0.0000010000
