16
0 1
B -1.4618240000 -0.0005300000 -1.4939800000
Si -0.0257800000 -0.0000110000 -0.0719680000
C -0.9443100000 -0.0003570000 1.5908220000
H -1.5772590000 -0.8850910000 1.7041700000
H -1.5779180000 0.8839060000 1.7041740000
C 1.0661750000 1.5407490000 -0.1635670000
H -0.2226940000 -0.0000900000 2.4146980000
H 1.8010730000 1.5516570000 0.6479030000
H 1.6173220000 1.5861070000 -1.1078930000
H 0.4678370000 2.4533840000 -0.0865600000
C 1.0673160000 -1.5399600000 -0.1635780000
H 0.4696540000 -2.4530390000 -0.0865870000
H 1.8022190000 -1.5503340000 0.6478950000
H 1.6185010000 -1.5848970000 -1.1079020000
H -1.9322900000 1.0133840000 -1.9172150000
H -1.9314940000 -1.0147810000 -1.9172930000
