9
0 1
Si 0.8304290000 -0.6919580000 0.0000020000
C -0.9576550000 -0.0188050000 0.0000410000
O 1.7078430000 0.7180660000 0.0000100000
H 2.6673050000 0.7290380000 0.0000040000
O -1.9088130000 -0.7549970000 -0.0000170000
O -1.1049160000 1.3307230000 -0.0000200000
H -0.2228690000 1.7347000000 -0.0000320000
H 1.0612700000 -1.5069020000 -1.2103530000
H 1.0613020000 -1.5069300000 1.2103310000
