9
0 1
Si -1.1814960000 -0.0691710000 -0.0000000000
B 0.7241510000 0.6108420000 0.0000200000
N 1.7992320000 -0.2691660000 -0.0000090000
H 1.6988190000 -1.2735270000 -0.0000300000
H 2.7623380000 0.0354210000 -0.0000140000
H 0.9683570000 1.7809410000 0.0000200000
H -1.2475510000 -1.5577460000 -0.0000210000
H -1.9281940000 0.4066440000 -1.1945910000
H -1.9282010000 0.4066110000 1.1946000000
