16
0 1
F 0.5687810000 3.0256410000 0.0000000000
O 0.2566860000 0.9430110000 2.4587960000
O 0.2566860000 0.9430110000 -2.4587960000
P -0.6170930000 1.9159290000 0.0000000000
C -0.0179840000 0.6819700000 1.3143240000
C -0.0253130000 -0.6766000000 0.7015340000
C 0.0047460000 -1.8769800000 1.4128330000
C 0.0288370000 -3.0708770000 0.7016420000
C 0.0288370000 -3.0708770000 -0.7016420000
C 0.0047460000 -1.8769800000 -1.4128330000
C -0.0253130000 -0.6766000000 -0.7015340000
C -0.0179840000 0.6819700000 -1.3143240000
H 0.0172940000 -1.8593140000 2.4960000000
H 0.0561850000 -4.0147020000 1.2340890000
H 0.0561850000 -4.0147020000 -1.2340890000
H 0.0172940000 -1.8593140000 -2.4960000000
