15
0 1
C -0.6133580000 0.0543100000 -0.0000020000
C -1.3357980000 1.2467610000 -0.0000050000
C -2.7301490000 1.2203110000 -0.0000040000
C -3.4111420000 0.0093150000 -0.0000010000
C -2.6910230000 -1.1857640000 0.0000020000
C -1.3037350000 -1.1656870000 0.0000020000
H -0.7522580000 -2.0973620000 0.0000040000
H -4.4948580000 -0.0078770000 -0.0000010000
H -3.2114340000 -2.1363380000 0.0000040000
H -0.8204690000 2.1961870000 -0.0000070000
H -3.2782790000 2.1551810000 -0.0000070000
C 0.9040820000 0.0195150000 -0.0000000000
Cl 1.6654970000 1.6473710000 -0.0000150000
Cl 1.5097250000 -0.8620040000 -1.4662080000
Cl 1.5097210000 -0.8619760000 1.4662260000
