20
0 1
S -0.2207180000 -1.2169320000 -0.5190680000
P -1.5800530000 0.2668820000 0.0445100000
O -1.4980070000 1.5319850000 -0.6983560000
C 1.2292920000 -0.1452870000 -0.9451030000
C 2.1361430000 0.2304110000 0.2348370000
C 2.8041920000 -0.9938400000 0.8703030000
H 2.0640550000 -1.7116020000 1.2306970000
H 3.4254590000 -0.6984840000 1.7199170000
H 3.4502180000 -1.5046220000 0.1473730000
C 3.1810970000 1.2510860000 -0.2428420000
H 1.5112280000 0.7135090000 0.9942180000
H 3.8242520000 0.8224520000 -1.0190180000
H 3.8242350000 1.5610210000 0.5851840000
H 2.7072550000 2.1464320000 -0.6542620000
H 0.8231960000 0.7393480000 -1.4355120000
H 1.7796380000 -0.7278730000 -1.6894850000
O -1.4022230000 0.3938870000 1.6319440000
H -1.8138330000 1.2012910000 1.9687950000
O -2.9910110000 -0.5017320000 -0.0312700000
H -3.3378180000 -0.5211110000 -0.9321650000
