7
0 2
C -1.0278050000 -1.1533410000 -0.1625950000
S -0.0348660000 0.1663750000 0.3827840000
O -0.4675140000 1.3882950000 -0.3097280000
O 1.3901830000 -0.4694120000 -0.3019830000
H 2.1181370000 -0.0413280000 0.1709080000
H -0.7891660000 -2.1552710000 0.1693670000
H -1.9856300000 -0.8964160000 -0.5955660000
