8
0 1
F -2.0997380000 -0.5089460000 0.0000060000
O -0.6224790000 -0.8996550000 0.0000080000
C 0.1552420000 0.1802990000 0.0000100000
S 1.7277670000 -0.2552110000 -0.0000120000
C -0.4660690000 1.5338010000 0.0000030000
H -1.1079580000 1.6431310000 0.8778680000
H -1.1079700000 1.6431170000 -0.8778550000
H 0.3140990000 2.2902790000 -0.0000090000
