9
0 1
H 1.6623340000 0.0000730000 -1.6411720000
H 3.0653450000 -0.0000470000 -0.1221770000
B 1.9331190000 0.0000230000 -0.4858140000
C 0.8265220000 -0.0000380000 0.6185100000
N -0.5683740000 -0.0000000000 0.0677190000
H 0.9243210000 0.8868840000 1.2517000000
H 0.9243110000 -0.8870250000 1.2516100000
O -1.0763810000 1.0876520000 -0.1559730000
O -1.0764220000 -1.0876230000 -0.1560250000
