7
0 1
F 1.7963370000 0.5866510000 -0.2510940000
S -0.5011900000 -0.6462520000 -0.2303220000
O 0.7803630000 -0.3785470000 0.6091400000
C -1.5310860000 0.8069070000 0.1024640000
H -2.4873730000 0.6402750000 -0.3990690000
H -1.0383250000 1.6831620000 -0.3192460000
H -1.6786800000 0.9236780000 1.1754050000
