14
0 1
B -2.6685120000 -0.1475070000 0.1879490000
B -1.2162340000 -0.8836500000 0.0126140000
P 0.3693090000 -0.0475560000 -0.4565510000
C 0.4616220000 1.6901770000 0.1765650000
H 0.4884570000 1.7374970000 1.2672690000
H -0.4100300000 2.2436100000 -0.1792780000
H 1.3547240000 2.1784770000 -0.2193560000
C 1.8192200000 -0.8978700000 0.3190220000
H 1.7663540000 -1.9618740000 0.0823460000
H 1.8407710000 -0.7779500000 1.4041610000
H 2.7462370000 -0.4991460000 -0.0988580000
H -1.1252210000 -2.0778380000 0.0441630000
H -3.3235940000 0.2899250000 -0.7117130000
H -3.1386590000 -0.0174140000 1.2831920000
