8
0 1
C -1.8516960000 0.5447240000 0.0000380000
S -0.6630190000 -0.8173950000 -0.0000800000
H -1.7428500000 1.1530920000 -0.8956350000
H -1.7428520000 1.1529370000 0.8958170000
H -2.8307580000 0.0586960000 -0.0000050000
N 0.8961840000 0.1415490000 0.0000080000
O 0.8261140000 1.3515270000 -0.0000910000
O 1.8940930000 -0.5447260000 0.0001940000
