16
0 1
C 2.2515090000 -1.2339650000 -0.1261610000
C 0.9298060000 -1.1793950000 0.3069950000
C 0.2638240000 0.0492410000 0.4202800000
C 2.9355960000 -0.0597550000 -0.4347350000
C 2.2889770000 1.1683560000 -0.3136660000
C 0.9616430000 1.2230410000 0.1048140000
H 2.7499640000 -2.1929210000 -0.2129860000
H 0.4121700000 -2.0979350000 0.5633650000
H 0.4664020000 2.1842970000 0.1862160000
H 3.9676160000 -0.1013770000 -0.7640180000
H 2.8160820000 2.0861050000 -0.5498780000
P -1.4729700000 0.0524370000 1.0366230000
P -2.5510420000 -0.2054300000 -0.9246110000
H -2.4025540000 1.1057940000 -1.4475690000
H -3.8382020000 0.0500830000 -0.3828000000
H -1.5994370000 1.4557050000 1.1823290000
