23
0 1
Si 2.7933740000 -0.7048930000 0.3146990000
C 1.0846740000 -1.0965570000 -0.3410060000
Cl 3.3386660000 1.2511340000 -0.1941360000
C -0.0605100000 -0.2391710000 0.2276770000
H 0.9061150000 -2.1587940000 -0.1210550000
H 1.1133120000 -1.0165700000 -1.4344310000
C -1.4371110000 -0.6226550000 -0.3308470000
H 0.1330920000 0.8175400000 0.0125760000
H -0.0787170000 -0.3286920000 1.3207380000
C -2.5817210000 0.2280360000 0.2304970000
H -1.6316560000 -1.6815220000 -0.1167850000
H -1.4186490000 -0.5315590000 -1.4243700000
C -3.9584940000 -0.1502780000 -0.3278160000
H -2.3845240000 1.2865940000 0.0175560000
H -2.5988100000 0.1370070000 1.3243730000
C -5.0963590000 0.7039870000 0.2381390000
H -4.1555190000 -1.2080970000 -0.1153110000
H -3.9416840000 -0.0584260000 -1.4205610000
H -5.1613220000 0.6057680000 1.3262940000
H -6.0629250000 0.4096080000 -0.1796560000
H -4.9456390000 1.7640100000 0.0112290000
H 3.8137740000 -1.5955650000 -0.2756800000
H 2.8457130000 -0.7822560000 1.7897410000
