22
0 1
N -1.6747800000 -0.0067830000 0.2073790000
C 0.7475640000 -0.2888220000 -0.3230250000
C 1.0805680000 1.0572820000 -0.1423180000
C 1.7631810000 -1.2453900000 -0.2660880000
C 3.0871040000 -0.8687380000 -0.0439570000
C 3.4092660000 0.4742600000 0.1313120000
C 2.4004440000 1.4361970000 0.0837480000
H 4.4372610000 0.7701680000 0.3080940000
H 2.6438600000 2.4840060000 0.2221320000
H 0.2927290000 1.8013900000 -0.1695380000
H 1.5167200000 -2.2949440000 -0.3951120000
H 3.8634000000 -1.6247770000 -0.0014830000
P -3.1764830000 0.3499020000 -0.5442540000
C -1.6510750000 -0.3952530000 1.6156550000
H -0.6245100000 -0.3736690000 1.9904200000
H -2.0591930000 -1.4061410000 1.7769260000
H -2.2420090000 0.3083820000 2.2045110000
C -0.6845840000 -0.7005940000 -0.6221550000
H -0.9102750000 -0.4686540000 -1.6683620000
H -0.7684480000 -1.7945150000 -0.5193390000
H -3.6591920000 1.2762720000 0.4172740000
H -4.0344460000 -0.6922230000 -0.0523910000
