8
0 1
C 1.1907980000 0.0000000000 -0.4676000000
Si -0.6435210000 0.0000000000 -0.0053230000
F 1.7848730000 1.1131050000 0.0749820000
H 1.3971670000 0.0000000000 -1.5420280000
F 1.7848730000 -1.1131050000 0.0749820000
F -0.8322730000 -0.0000010000 1.5592650000
F -1.3427740000 -1.2812960000 -0.6089410000
F -1.3427730000 1.2812960000 -0.6089390000
