8
0 2
C 0.9966780000 -0.0492390000 -0.1930340000
O 0.0463120000 -0.2526070000 0.7684400000
F 1.9832670000 -0.9220310000 -0.0564940000
F 1.4762890000 1.1930820000 -0.2007330000
C -1.2767280000 -0.1127890000 0.3870020000
F -1.5992310000 -1.0214270000 -0.5600850000
F -1.5053200000 1.1121010000 -0.1368240000
H -1.8852400000 -0.2625010000 1.2758850000
