14
0 1
P 0.1438600000 -0.9951780000 -0.2326540000
N -0.9553860000 0.2703280000 0.3538230000
O -1.1430460000 1.2656350000 -0.6543210000
O -2.2180130000 -0.3845360000 0.5304940000
C 1.6442490000 0.0578200000 -0.5327680000
C 2.3764730000 0.4397430000 0.7587370000
H 2.6827870000 -0.4464320000 1.3213250000
H 1.7375600000 1.0403390000 1.4106570000
H 3.2741380000 1.0243250000 0.5391500000
H 1.3549300000 0.9421710000 -1.1031300000
H 2.2937380000 -0.5478360000 -1.1753380000
H -1.2343520000 2.0809580000 -0.1458540000
H -2.5161160000 -0.0556920000 1.3866220000
H -0.2987330000 -1.0366340000 -1.5855680000
