23
0 1
C -0.2435490000 2.1273630000 0.2384680000
B -0.3554180000 0.5776800000 -0.0719470000
H -1.1876260000 2.6764200000 0.2703960000
H 0.3892260000 2.6225670000 -0.5056320000
H 0.2585740000 2.2896210000 1.2008130000
P 1.2778150000 -0.4261010000 -0.5212770000
N -1.5813850000 -0.1134190000 -0.0902110000
C -2.8707620000 0.4660850000 0.2792370000
H -2.7595580000 1.4945500000 0.6106600000
H -3.3285630000 -0.1077640000 1.0942850000
H -3.5644620000 0.4452600000 -0.5705540000
C -1.7255320000 -1.5176080000 -0.4672850000
H -2.5330560000 -1.6283450000 -1.2004820000
H -0.8081210000 -1.8907750000 -0.9204860000
H -1.9759850000 -2.1414590000 0.3999160000
C 1.4946740000 -1.4764630000 1.0143020000
H 1.4566140000 -0.8925520000 1.9382160000
H 2.4622180000 -1.9821740000 0.9626900000
H 0.7214520000 -2.2456730000 1.0573770000
C 2.6376080000 0.8132220000 -0.2261720000
H 3.5992910000 0.3004660000 -0.3078030000
H 2.6107590000 1.5814860000 -1.0018840000
H 2.5841630000 1.2998330000 0.7515560000
