16
0 1
C -2.5548540000 0.1307070000 0.0000080000
C -1.2961070000 -0.7317580000 -0.0000070000
H -3.4514750000 -0.4937770000 0.0000060000
H -2.5850520000 0.7780560000 -0.8785560000
H -2.5850440000 0.7780370000 0.8785860000
C 0.0000000000 0.0715650000 -0.0000090000
H -1.2757970000 -1.3998570000 -0.8707190000
H -1.2757870000 -1.3998750000 0.8706900000
O 0.0000000000 1.2822580000 -0.0000040000
C 1.2961070000 -0.7317580000 0.0000070000
C 2.5548540000 0.1307060000 0.0000010000
H 1.2757960000 -1.3998790000 -0.8706880000
H 1.2757880000 -1.3998540000 0.8707210000
H 2.5850530000 0.7780330000 -0.8785790000
H 3.4514750000 -0.4937770000 0.0000150000
H 2.5850430000 0.7780590000 0.8785620000
