15
0 1
B -1.3809400000 -1.5116930000 0.4954060000
P -0.6283310000 -0.1294080000 -0.4139350000
C 1.2052930000 -0.2327670000 -0.6429920000
C 2.0637220000 0.0474920000 0.5969000000
H 1.4774960000 0.4466480000 -1.4568720000
H 1.3883130000 -1.2452970000 -1.0143740000
H 1.8931400000 1.0535130000 0.9883350000
H 3.1278400000 -0.0318330000 0.3531450000
C -1.0397300000 1.5532000000 0.2200710000
H -2.1070370000 1.5733070000 0.4470070000
H -0.8374690000 2.3072630000 -0.5431600000
H -0.4866660000 1.8062500000 1.1261760000
H 1.8432050000 -0.6646550000 1.3951990000
H -0.8968030000 -2.5945800000 0.3926210000
H -2.4480710000 -1.3585750000 1.0000520000
