19
0 1
C 0.3393720000 1.2551460000 -0.1800920000
C -1.1476060000 1.2784900000 0.2062110000
C 1.0361920000 -0.0141030000 0.3228160000
H 0.8508980000 2.1405480000 0.2176270000
H 0.4468230000 1.2885940000 -1.2709040000
C -1.8697750000 0.0138040000 -0.2808190000
H -1.6268880000 2.1736650000 -0.2018610000
H -1.2391970000 1.3486460000 1.2978270000
C 0.3201970000 -1.2689580000 -0.1691640000
C -1.1665690000 -1.2585020000 0.2147220000
H -1.8898080000 0.0106870000 -1.3780660000
H -2.9129880000 0.0234910000 0.0508670000
H 0.8253610000 -2.1511280000 0.2343400000
H 0.4278730000 -1.3118150000 -1.2596460000
H -1.6609220000 -2.1475210000 -0.1885530000
H -1.2617410000 -1.3207900000 1.3065120000
O 2.3874560000 -0.0961060000 -0.1355210000
H 2.8512550000 0.6904010000 0.1685390000
H 1.0188300000 -0.0111850000 1.4254450000
