15
0 1
Si -0.8680680000 -0.5942770000 0.1894910000
C 0.7841730000 0.0973560000 -0.3791040000
C 1.0450630000 1.4997930000 0.2003110000
H 0.2412900000 2.1946050000 -0.0538340000
H 1.9840600000 1.9128910000 -0.1841540000
H 1.1248740000 1.4671840000 1.2922440000
C 1.9325150000 -0.8765360000 -0.0538240000
H 0.7093990000 0.1859670000 -1.4713720000
H 2.8868510000 -0.4905770000 -0.4274090000
H 1.7770560000 -1.8613070000 -0.5044510000
H 2.0412770000 -1.0185840000 1.0266370000
O -2.0308530000 0.4971590000 -0.2674120000
H -2.9450820000 0.3316080000 -0.0291050000
H -0.8736350000 -0.7806940000 1.6661930000
H -1.1168210000 -1.9221620000 -0.4326140000
