14
0 1
C 0.7181980000 -0.9528380000 -0.1642140000
P -0.7750010000 0.0343360000 0.1088170000
O -1.0644890000 0.4469000000 1.4894740000
C 1.9296840000 -0.2962410000 0.4378570000
C 2.9376830000 0.2112170000 -0.2645520000
H 0.8295590000 -1.1006800000 -1.2411170000
H 0.5281930000 -1.9282290000 0.2956090000
H 1.9404620000 -0.2340650000 1.5225330000
H 2.9542990000 0.1740570000 -1.3494250000
H 3.7855780000 0.6783020000 0.2229250000
O -1.8636410000 -0.8978110000 -0.6126430000
H -2.7691620000 -0.6141150000 -0.4356300000
O -0.6517240000 1.2799360000 -0.9109020000
H -0.5184780000 2.1046620000 -0.4291380000
