13
0 1
C -0.4458370000 0.0275320000 -0.3370410000
C 0.7502180000 -0.7386160000 0.2154440000
O -0.3176690000 1.3485140000 0.2197120000
H -0.9024570000 1.9421180000 -0.2597200000
O 1.9712480000 -0.1124260000 -0.1353420000
H 0.7744500000 -1.7485940000 -0.2006370000
H 0.6411640000 -0.8194050000 1.3079170000
H 1.8554860000 0.8176200000 0.0946960000
C -1.7844670000 -0.6026500000 0.0293050000
H -0.3363420000 0.0821750000 -1.4288510000
H -1.8972240000 -0.6532080000 1.1152780000
H -1.8682660000 -1.6139330000 -0.3800410000
H -2.6149260000 -0.0130770000 -0.3698510000
