15
0 1
C -0.8391860000 -1.5176600000 0.3940620000
C 0.5022220000 -1.7587140000 0.1332100000
C 1.3946360000 -0.6959150000 0.0013610000
C 0.9297940000 0.6160930000 0.1326970000
C -0.4174240000 0.8506450000 0.3932530000
C -1.3131910000 -0.2095610000 0.5278650000
H -1.5222530000 -2.3538570000 0.4897300000
H 0.8734420000 -2.7700520000 0.0309260000
C -2.7589410000 0.0570190000 0.8123760000
H -0.7593870000 1.8739230000 0.4868320000
H -3.2143140000 -0.7449740000 1.3888170000
Cl -3.7515370000 0.1723130000 -0.7246490000
H -2.9072450000 1.0050140000 1.3239150000
Cl 2.0050490000 1.9807890000 -0.0185990000
Cl 3.0725050000 -1.0390720000 -0.3208200000
