12
0 1
S 2.4113780000 0.3462940000 -0.0659580000
S 0.7855490000 -0.9431670000 0.0798040000
C -0.6580530000 0.1894720000 -0.0908230000
O -0.5595930000 1.3797710000 -0.0976180000
C -1.9555310000 -0.5910690000 -0.2243610000
C -3.1790980000 0.2196920000 0.2053210000
H -1.8753890000 -1.5288840000 0.3344190000
H -2.0302470000 -0.8745490000 -1.2813810000
H -3.1353340000 0.4631430000 1.2691860000
H -4.0935680000 -0.3482910000 0.0220250000
H -3.2333560000 1.1572660000 -0.3489530000
H 2.4498980000 0.7345320000 1.2232880000
