17
0 1
C -2.6211150000 0.2329570000 1.0630060000
P -1.9155600000 -0.2531910000 -0.5954480000
H -2.4384940000 -0.5756260000 1.7737900000
H -3.7025780000 0.3552720000 0.9617940000
H -2.1889110000 1.1542090000 1.4571570000
C -0.1067290000 -0.0703620000 -0.2731040000
C 0.5463870000 1.1697560000 -0.2361920000
C 0.6499550000 -1.2299470000 -0.0602930000
C 2.0166550000 -1.1537630000 0.2013140000
C 2.6518140000 0.0850710000 0.2358360000
C 1.9143440000 1.2468250000 0.0117740000
H 3.7167810000 0.1459370000 0.4301100000
H 2.4052170000 2.2137580000 0.0307180000
H -0.0172000000 2.0809400000 -0.4060200000
H 0.1660760000 -2.2001680000 -0.1077450000
H 2.5856690000 -2.0618030000 0.3675330000
H -2.1010150000 1.0021250000 -1.2296590000
