25
0 1
C 2.8352730000 -0.1071460000 -0.2725540000
C 2.1983420000 0.6019220000 0.7550410000
C 0.8495660000 0.3832510000 1.0118680000
C 2.1106790000 -1.0373430000 -1.0347040000
C 0.7684530000 -1.2522620000 -0.7810070000
C 0.1394920000 -0.5345980000 0.2419710000
H 2.7401050000 1.3157560000 1.3594930000
H 0.3495070000 0.9203450000 1.8070700000
H 2.6300410000 -1.5814250000 -1.8134040000
H 0.2084490000 -1.9814330000 -1.3516790000
S -1.5753550000 -0.8082630000 0.5780380000
O -1.9896980000 -2.0281360000 -0.0658110000
O -1.8328060000 -0.5254940000 1.9600150000
N -2.3848040000 0.4331490000 -0.3280740000
N -2.2590470000 1.6832990000 0.1856030000
O -2.7510460000 2.5486970000 -0.5043120000
C -2.9872100000 0.2057590000 -1.6434390000
H -3.0320950000 -0.8654180000 -1.8132840000
H -2.3970220000 0.7007140000 -2.4185700000
H -3.9912770000 0.6312250000 -1.6458260000
O 4.1398830000 0.0283960000 -0.6030380000
C 4.9461830000 0.9495900000 0.1276720000
H 4.5705880000 1.9729150000 0.0279740000
H 5.9385300000 0.8841760000 -0.3135500000
H 5.0004850000 0.6774790000 1.1865420000
