15
0 1
O 0.2529350000 -0.6412920000 0.0000260000
C -0.7453260000 0.3012910000 0.0000060000
C -0.1745430000 1.5515100000 0.0000050000
C 1.2305410000 1.3746450000 0.0000210000
C 1.4483640000 0.0202130000 0.0000350000
B -2.2116510000 -0.2223610000 -0.0000060000
O -3.2175450000 0.6926010000 -0.0000220000
O -2.4976600000 -1.5566480000 0.0000030000
C 2.6640490000 -0.7844080000 0.0000590000
O 3.7810710000 -0.3153410000 -0.0000880000
H 2.4836100000 -1.8790790000 -0.0000830000
H -0.7189510000 2.4825970000 -0.0000070000
H 2.0020140000 2.1278060000 0.0000250000
H -4.0864880000 0.2771520000 -0.0000280000
H -1.7108550000 -2.1107380000 0.0000150000
