27
0 1
S -0.3456910000 -1.6386360000 0.2628060000
S 0.7728870000 -0.4150230000 -0.9921790000
C 2.1461880000 0.3497460000 0.0530940000
C 3.0398920000 -0.7597700000 0.6151640000
H 3.8725610000 -0.3186990000 1.1746870000
H 3.4514560000 -1.3787990000 -0.1847460000
H 2.4825830000 -1.4058790000 1.2969490000
C 2.9136970000 1.1976320000 -0.9735090000
H 3.7758240000 1.6635150000 -0.4857810000
H 2.2879270000 1.9935410000 -1.3850590000
H 3.2854900000 0.5876570000 -1.8008470000
C 1.5910750000 1.2255410000 1.1746040000
H 0.9518610000 2.0185950000 0.7835360000
H 2.4198500000 1.6852150000 1.7249890000
H 1.0081640000 0.6328430000 1.8816080000
C -1.9831660000 -0.7648190000 0.5377610000
C -1.8912050000 0.5421340000 1.2643740000
C -2.2995020000 1.5638560000 0.5119480000
C -2.7629860000 1.1272920000 -0.8551910000
C -2.7723160000 -0.4194880000 -0.7537440000
H -2.0766680000 1.4865550000 -1.6298370000
H -3.7521690000 1.5271800000 -1.1012950000
H -3.7991190000 -0.7780370000 -0.6432040000
H -2.3516720000 -0.9050680000 -1.6336870000
H -2.4831030000 -1.5411460000 1.1280630000
H -1.5038960000 0.6162690000 2.2727620000
H -2.2942950000 2.6020560000 0.8248220000
