10
0 1
Cl 1.7868080000 -1.3435660000 0.0000250000
Cl 1.4043940000 1.6836390000 0.0000030000
B 0.7730000000 0.0583320000 -0.0000310000
S -1.1042990000 -0.2655890000 -0.0000100000
O -1.4083020000 -0.9160810000 1.2655420000
C -1.9310130000 1.3307040000 -0.0000160000
O -1.4083290000 -0.9161050000 -1.2655440000
H -1.6662630000 1.8806400000 0.9016300000
H -2.9949700000 1.0885280000 -0.0000030000
H -1.6662800000 1.8806240000 -0.9016770000
