7
0 1
C -0.1107050000 0.0092870000 0.0895460000
O 0.5433380000 -0.0073890000 1.3014540000
O 1.9673050000 0.1369250000 1.0946350000
H 2.2467730000 -0.7919090000 1.1390820000
Cl -1.8226240000 -0.1341990000 0.5465270000
Cl 0.1726560000 1.5201280000 -0.8304640000
Cl 0.3753990000 -1.4035820000 -0.9422430000
