19
0 1
F -3.8573620000 -0.0239560000 0.4045580000
N -0.6264160000 -1.0666670000 -0.0681630000
N -2.8842760000 -0.7653870000 -0.3243400000
H -2.9072160000 -1.6952150000 0.0909140000
C -1.6041960000 -0.1984800000 -0.1360780000
C -1.4412440000 1.2123770000 -0.1336240000
H -2.3090700000 1.8549350000 -0.1800300000
C -0.1660770000 1.7000840000 -0.0632590000
H 0.0133710000 2.7701130000 -0.0506640000
C 2.2854030000 1.2384180000 0.0415100000
H 2.4972320000 2.3026090000 0.0519190000
C 3.3092260000 0.3213670000 0.0837510000
H 4.3389930000 0.6564400000 0.1281590000
C 3.0239810000 -1.0630200000 0.0703530000
H 3.8403110000 -1.7757390000 0.1041560000
C 1.7253810000 -1.5121420000 0.0142650000
H 1.4858130000 -2.5683960000 0.0040060000
C 0.6513730000 -0.5908560000 -0.0320730000
C 0.9380960000 0.8081250000 -0.0185050000
