11
0 1
Cl 2.8640380000 -0.6730820000 -0.1803530000
Cl -2.7130880000 -0.4242410000 -0.8890020000
O 0.0655400000 -1.9849060000 1.1681100000
O 1.5195170000 2.2708200000 0.2419430000
P -1.6949510000 0.1331750000 0.8779690000
P 0.9460590000 -0.2233280000 -0.7996740000
C -0.1303570000 -0.9762360000 0.5656740000
C -0.8254020000 1.6989810000 0.3035400000
H -1.3232750000 2.0686540000 -0.5976450000
H -0.9064650000 2.4709210000 1.0731710000
C 0.6585110000 1.4739060000 0.0055640000
