17
0 1
C -2.8601150000 -0.4956720000 0.0135520000
C -2.1540530000 0.7045200000 0.0077720000
C -0.7541870000 0.7339390000 -0.0170470000
C -2.1763190000 -1.7053260000 -0.0121780000
C -0.7856080000 -1.7039920000 -0.0329280000
C -0.0767890000 -0.5027590000 -0.0259680000
H -3.9440200000 -0.4798170000 0.0299040000
H -2.7032530000 1.6383380000 0.0149960000
P 0.1385130000 2.3640510000 0.0819230000
H -0.2419340000 -2.6389480000 -0.0527220000
H -2.7163750000 -2.6445360000 -0.0155070000
C 1.4308300000 -0.5673060000 0.0058960000
F 1.8988350000 -1.8035690000 -0.2632600000
F 1.9953050000 0.2684160000 -0.9004010000
F 1.9257410000 -0.2178770000 1.2144390000
H -1.0324430000 3.1566590000 -0.0010780000
H 0.4388560000 2.5043940000 -1.2960280000
