13
0 1
S 1.4517330000 -0.0000000000 0.9597930000
C -0.2258870000 -0.0000000000 0.3820660000
Cl 2.5442790000 0.0000000000 -0.8443280000
C -0.8967450000 1.2137590000 0.1858930000
C -0.8967450000 -1.2137590000 0.1858930000
C -2.2325620000 -1.2096920000 -0.2021160000
C -2.8990110000 0.0000000000 -0.3958640000
C -2.2325620000 1.2096920000 -0.2021150000
H -0.3660770000 2.1452470000 0.3387290000
H -2.7534770000 2.1481200000 -0.3527310000
H -0.3660770000 -2.1452470000 0.3387280000
H -2.7534780000 -2.1481200000 -0.3527320000
H -3.9402840000 0.0000000000 -0.6976470000
