16
0 1
N 1.3726390000 0.0016890000 0.3171240000
C 0.7372800000 -1.2105780000 -0.2054610000
C -0.7343070000 -1.2123890000 0.2054670000
H 1.2420530000 -2.0844730000 0.2164070000
H 0.7892150000 -1.2795380000 -1.3064220000
N -1.3726390000 -0.0016890000 -0.3171240000
H -0.7860700000 -1.2814720000 1.3064270000
H -1.2369260000 -2.0875250000 -0.2164010000
C -0.7372800000 1.2105780000 0.2054610000
C 0.7343070000 1.2123890000 -0.2054670000
H -0.7892150000 1.2795380000 1.3064220000
H -1.2420530000 2.0844730000 -0.2164070000
H 0.7860700000 1.2814720000 -1.3064270000
H 1.2369260000 2.0875250000 0.2164010000
H 2.3611560000 0.0029010000 0.0918120000
H -2.3611560000 -0.0029010000 -0.0918120000
