15
0 1
C -0.0736300000 1.5296420000 0.1774180000
C -1.3918340000 1.7591050000 -0.2068350000
C -2.2912770000 0.7010140000 -0.3135340000
C -1.8389120000 -0.5788530000 -0.0288010000
C -0.5329370000 -0.8338940000 0.3552780000
C 0.3644530000 0.2324550000 0.4609490000
H 0.6205040000 2.3588040000 0.2541550000
H -1.7249260000 2.7672340000 -0.4234280000
C 1.7807270000 -0.0180510000 0.8777700000
F -2.7019240000 -1.6135160000 -0.1244740000
H -3.3221410000 0.8512670000 -0.6082980000
H -0.2285210000 -1.8530370000 0.5617390000
H 2.2219730000 0.8487660000 1.3638530000
Cl 2.8693830000 -0.3713120000 -0.5579840000
H 1.8713820000 -0.8875910000 1.5245070000
