17
0 1
P -0.5713340000 -0.2030070000 -0.8295890000
N -0.9334850000 1.4555880000 -0.0094040000
P 1.4872610000 -0.4191040000 -0.0045430000
C -1.4936770000 -1.3286660000 0.3183260000
C -2.9638710000 -1.5180240000 -0.0745140000
H -1.3919820000 -0.9657280000 1.3427670000
H -0.9492840000 -2.2779480000 0.2473840000
H -3.5138740000 -0.5799120000 0.0071590000
H -3.4362680000 -2.2459980000 0.5897220000
H -3.0589190000 -1.8867470000 -1.0987840000
O -2.0015230000 1.6067450000 0.5473780000
O -0.0917590000 2.3456520000 -0.1559050000
O 2.0542300000 -1.7231440000 -0.3577410000
O 1.3609090000 -0.1553870000 1.5811050000
H 1.6690580000 -0.9134840000 2.0943950000
O 2.2434340000 0.8547910000 -0.5637700000
H 1.6997230000 1.6632360000 -0.4762390000
