23
0 1
C 0.6543400000 0.1152820000 0.0817320000
C 1.2699980000 -1.0854810000 0.4763100000
C 2.6475540000 -1.2599300000 0.3771420000
C 3.4463140000 -0.2329950000 -0.1235560000
C 2.8591290000 0.9644100000 -0.5236020000
C 1.4789700000 1.1335430000 -0.4219980000
P -2.1711880000 -1.3538320000 -0.9883270000
H 3.0979730000 -2.1963300000 0.6879180000
H 4.5195160000 -0.3670080000 -0.2026110000
H 3.4745030000 1.7671300000 -0.9153150000
H 1.0444390000 2.0752930000 -0.7402560000
H 0.6668160000 -1.9014330000 0.8630470000
Si -1.2133000000 0.3314900000 0.2367010000
C -1.7314940000 2.0431720000 -0.3524250000
H -1.4626490000 2.2121380000 -1.3983760000
H -1.2650940000 2.8282970000 0.2517550000
H -2.8157420000 2.1573310000 -0.2664300000
C -1.7530790000 0.0832000000 2.0251550000
H -1.3041310000 0.8462930000 2.6683760000
H -1.4477080000 -0.8952870000 2.4049670000
H -2.8403870000 0.1563610000 2.1235030000
H -1.8621840000 -0.7784810000 -2.2490000000
H -3.4817330000 -0.8048830000 -0.9490280000
