9
0 2
C -0.0596740000 0.5205290000 -0.1244680000
C 1.2521010000 -0.1760690000 0.0174260000
H 1.3071300000 -1.0649530000 -0.6250750000
H 1.4448070000 -0.5200950000 1.0480950000
H 2.0743750000 0.4837020000 -0.2681900000
N -1.2216740000 -0.2319920000 0.1079290000
H -0.1364900000 1.5634980000 0.1656330000
H -1.2102850000 -1.1533270000 -0.3141360000
H -2.0823770000 0.2483600000 -0.1195730000
