8
0 2
N 1.1333780000 0.1999660000 0.0869430000
N 0.0621100000 -0.6159700000 -0.0379860000
H 1.0624020000 1.1500290000 -0.2801090000
H 2.0014840000 -0.2605730000 -0.1492120000
C -1.1591690000 0.1567740000 0.0053980000
H -1.1685910000 0.9672580000 -0.7453710000
H -1.3067120000 0.6203940000 0.9928220000
H -2.0019860000 -0.5057260000 -0.1932140000
