16
0 1
Si -0.3579800000 0.0059560000 0.0399750000
O 0.9650360000 -0.1829610000 -1.0115670000
O 2.1896560000 0.0577720000 -0.2383600000
H 2.6832980000 -0.7391010000 -0.4721720000
C -1.8002180000 -0.2565970000 -1.1232850000
H -1.7957720000 0.4822140000 -1.9288890000
H -2.7470010000 -0.1591790000 -0.5823280000
H -1.7728090000 -1.2515100000 -1.5754710000
C -0.2964910000 -1.2969780000 1.3846180000
H -0.3117420000 -2.3050970000 0.9602560000
H -1.1543860000 -1.2046090000 2.0583810000
H 0.6111230000 -1.1942050000 1.9852010000
C -0.3515600000 1.7259270000 0.7739900000
H -0.4051050000 2.4862490000 -0.0100700000
H 0.5616070000 1.8996160000 1.3488850000
H -1.2054120000 1.8696350000 1.4440360000
