8
0 1
Si -1.5104640000 0.0000000000 -0.0631360000
Si 0.7961630000 0.0000000000 0.3171310000
F 1.0643160000 0.0000000000 1.8891180000
Cl 1.6512210000 1.6795430000 -0.4779270000
F -2.1912670000 -1.2823090000 0.5700480000
F -2.1912590000 1.2823390000 0.5699960000
Cl 1.6512200000 -1.6795430000 -0.4779270000
F -1.8085990000 -0.0000300000 -1.6187630000
