10
0 1
P -0.6150190000 -0.7453300000 -0.1074100000
Si 1.4403110000 0.2224700000 0.0066320000
C -1.7028260000 0.7774980000 0.0236950000
H -0.6238360000 -1.1133480000 1.2644940000
H -1.6690600000 1.3137700000 -0.9270590000
H -1.4151080000 1.4592860000 0.8248780000
H -2.7333080000 0.4547370000 0.1858640000
H 1.7126450000 0.9004150000 -1.2833780000
H 2.4519090000 -0.8396980000 0.2158060000
H 1.5546390000 1.2252260000 1.0955270000
