22
0 1
C -2.8434350000 -0.8876590000 -0.3527300000
N -2.0167530000 0.2029700000 0.0610040000
C -0.5842240000 0.1107400000 0.0319840000
N -2.6797110000 1.3356020000 0.5256900000
O -1.9727840000 2.2345920000 0.8838010000
O -2.3299860000 -1.9095270000 -0.7295380000
C 0.1431800000 0.9998670000 -0.7594010000
C 1.5295590000 0.9263610000 -0.7821570000
C 2.1591770000 -0.0451880000 -0.0136650000
C 1.4488370000 -0.9407670000 0.7766830000
C 0.0631720000 -0.8560360000 0.8009510000
H -0.5140650000 -1.5430030000 1.4045270000
H 1.9822760000 -1.6816710000 1.3548760000
H -0.3711710000 1.7444750000 -1.3518350000
H 2.1240440000 1.5997030000 -1.3829570000
C -4.3348480000 -0.6646730000 -0.2853520000
H -4.6541690000 -0.4505800000 0.7357540000
H -4.8120010000 -1.5741360000 -0.6448970000
H -4.6350980000 0.1860130000 -0.8990320000
N 3.6384320000 -0.1301060000 -0.0392030000
O 4.2371440000 0.6712510000 -0.7422870000
O 4.1653630000 -0.9958060000 0.6446810000
