19
0 2
C -0.2575730000 -1.2400530000 -0.7965070000
C -0.7626490000 -0.0011140000 -0.0135190000
C -2.2560640000 -0.0050690000 -0.0076410000
H -2.8151560000 0.9210630000 0.0575300000
H -2.8102290000 -0.9347840000 0.0464220000
C -0.2645710000 1.3052230000 -0.6836100000
O 1.1627820000 -1.4045970000 -0.7629820000
H -0.6123290000 -1.1808180000 -1.8336820000
H -0.6768070000 -2.1480800000 -0.3546830000
H 1.5274540000 -0.5914360000 -1.1463530000
C -0.2633450000 -0.0660910000 1.4661210000
O 1.1558140000 1.3785690000 -0.8193410000
H -0.6413770000 2.1677820000 -0.1161460000
H -0.6704150000 1.3730750000 -1.6957910000
H 1.5090930000 1.2921300000 0.0803510000
O 1.1571040000 0.0345820000 1.5992900000
H -0.6277070000 -0.9932760000 1.9266620000
H -0.6816070000 0.7716680000 2.0283160000
H 1.5186900000 -0.7031370000 1.0825710000
