19
0 1
C -3.2395020000 -0.8925630000 -0.0451910000
C -1.9739440000 -0.1570040000 -0.4976980000
H -3.8635510000 -0.2522500000 0.5860250000
H -2.9889080000 -1.7860650000 0.5348350000
H -3.8433700000 -1.2086190000 -0.9005880000
C -1.0910620000 0.3070880000 0.6763570000
H -2.2568040000 0.7095150000 -1.1064860000
H -1.3904520000 -0.8101730000 -1.1550700000
Si 0.4572450000 1.2444160000 0.1857080000
H -0.8054190000 -0.5539440000 1.2928800000
H -1.6655630000 0.9701610000 1.3388580000
O 1.4569830000 0.3409080000 -0.8044000000
C 2.2176170000 -0.7519440000 -0.5247320000
C 2.3839750000 -1.3386960000 0.6586360000
H 1.9099900000 -0.9841300000 1.5660280000
H 3.0294850000 -2.2031160000 0.7358300000
H 2.7127980000 -1.1211580000 -1.4176570000
H 1.1990830000 1.6681310000 1.3983550000
H 0.1229210000 2.4212760000 -0.6419690000
