13
0 2
Si 1.1767320000 -1.1715380000 -0.0578710000
B 0.1302710000 0.5508690000 0.0034440000
H 2.6347640000 -1.1036890000 0.1988370000
H 0.6354060000 -2.4656610000 0.4258330000
O -1.2251590000 0.5926260000 -0.0034480000
C 0.9002180000 1.9254380000 0.0134250000
H 1.7317990000 1.9451320000 -0.6985380000
H 1.3457930000 2.1014650000 1.0007270000
H 0.2311430000 2.7630510000 -0.2041810000
C -2.0682690000 -0.5576670000 0.0018580000
H -3.0790140000 -0.2239490000 -0.2329140000
H -2.0676820000 -1.0300110000 0.9878820000
H -1.7482410000 -1.2867760000 -0.7487820000
