7
0 1
Cl 1.7319800000 -0.0508420000 -0.0000050000
O 0.1781450000 -0.7991270000 0.0000040000
B -0.9341930000 0.0636450000 0.0000060000
O -0.8869380000 1.4124120000 -0.0000020000
O -2.1323470000 -0.5746350000 0.0000060000
H -2.0496930000 -1.5326880000 0.0000080000
H 0.0061080000 1.7695790000 -0.0000060000
