10
0 1
Cl -1.5251030000 1.6207700000 0.2321870000
S 1.3459500000 -0.0000040000 -0.1162670000
O 1.8853490000 1.2650650000 -0.5778420000
P -0.7979880000 -0.0000010000 -0.8612050000
C 1.3394570000 0.0000200000 1.6823480000
H 2.3940900000 0.0000180000 1.9633350000
H 0.8459980000 0.9029180000 2.0358170000
Cl -1.5251120000 -1.6207640000 0.2321930000
O 1.8853320000 -1.2650930000 -0.5778080000
H 0.8459880000 -0.9028630000 2.0358420000
