12
0 1
O 0.0734970000 -1.0623080000 0.0000040000
C 1.3979500000 -0.7316230000 -0.0000120000
C 1.5466520000 0.6163630000 0.0000180000
C 0.2191540000 1.1623940000 -0.0000160000
C -0.6385030000 0.1053680000 -0.0000000000
H -0.0575090000 2.2049150000 -0.0000270000
H 2.0886390000 -1.5575840000 -0.0000190000
H 2.4785350000 1.1590440000 0.0000330000
C -2.1205490000 -0.0148260000 0.0000050000
H -2.5743420000 0.9770920000 -0.0000180000
H -2.4757630000 -0.5555040000 0.8829170000
H -2.4757640000 -0.5555450000 -0.8828810000
