18
0 1
O 1.0817790000 0.6144060000 -0.3478450000
C 2.1044100000 -0.1649460000 0.1280630000
C -0.2592330000 0.2656720000 -0.1696190000
O 1.9555490000 -1.2016190000 0.7109490000
C -0.7450090000 -1.0257490000 -0.3569380000
C -1.1167050000 1.3183540000 0.1356290000
C -2.4818930000 1.0778370000 0.2588430000
C -2.9846800000 -0.2093610000 0.0802310000
C -2.1138690000 -1.2523050000 -0.2271920000
H -2.4979410000 -2.2561690000 -0.3682410000
H -0.0701350000 -1.8373820000 -0.5841440000
H -3.1503480000 1.8977140000 0.4953670000
H -4.0473030000 -0.3981380000 0.1783930000
H -0.7029460000 2.3108180000 0.2659310000
C 3.4224230000 0.4907420000 -0.1935920000
H 3.4806560000 1.4652960000 0.2964240000
H 3.5020260000 0.6609260000 -1.2693140000
H 4.2347080000 -0.1468230000 0.1482040000
