13
0 1
F 2.1759460000 -0.3983260000 0.4902990000
F 0.9664870000 1.2574380000 -0.4376780000
B 1.0200860000 -0.0123890000 -0.0429450000
C -0.1729860000 -1.0007730000 -0.2240380000
C -1.5427700000 -0.3647690000 -0.5199370000
H 0.1133740000 -1.6738370000 -1.0464930000
C -2.0915840000 0.4549100000 0.6521590000
H -2.2579910000 -1.1530980000 -0.7759810000
H -1.4623370000 0.2759970000 -1.4038710000
H -2.2002730000 -0.1628580000 1.5493430000
H -3.0737020000 0.8733330000 0.4172650000
H -0.2285670000 -1.6556570000 0.6544360000
H -1.4287960000 1.2898470000 0.8973310000
