15
0 1
F -1.3852280000 -0.8583840000 1.2531260000
P 0.0543910000 -1.7407110000 -0.9254190000
C -1.4068430000 -0.8718600000 -0.1228860000
Cl 0.1085900000 -3.4785850000 0.2226050000
P -1.5346430000 0.8233330000 -0.9253430000
C 1.4585930000 -0.7823950000 -0.1228800000
C -0.0517480000 1.6542070000 -0.1224670000
Cl -3.0669400000 1.6452190000 0.2225100000
F 1.4364200000 -0.7704750000 1.2531460000
P 1.4801680000 0.9174970000 -0.9252740000
F -0.0509240000 1.6283870000 1.2535700000
Cl 2.9582830000 1.8335200000 0.2224060000
H -0.0844650000 2.7013930000 -0.4450560000
H 2.3817730000 -1.2775560000 -0.4457970000
H -2.2973510000 -1.4237030000 -0.4456810000
