9
0 1
Cl 1.5777430000 -1.5656220000 0.0393940000
Cl 1.7287800000 1.4672080000 -0.0064270000
B 0.7913620000 -0.0010830000 0.0118370000
P -1.1391110000 0.0361610000 -0.1267330000
O -1.6062130000 -0.1337750000 -1.5122950000
O -1.7226870000 -1.0713170000 0.8933470000
H -1.9199980000 -1.9020400000 0.4427220000
O -1.5094940000 1.3860290000 0.6429740000
H -2.4538770000 1.5905840000 0.6464610000
