8
0 1
B -1.5438620000 -0.1618850000 -0.0000010000
B 0.0006970000 0.4600110000 0.0000040000
N 1.2210390000 -0.2140070000 0.0000030000
H 1.3114600000 -1.2182030000 0.0000100000
H 2.1090970000 0.2635410000 -0.0000080000
H 0.0617670000 1.6653490000 -0.0000300000
H -2.1568730000 -0.3516680000 1.0112360000
H -2.1569000000 -0.3515960000 -1.0112370000
