12
0 2
H -1.6811720000 1.9616970000 0.1733070000
B -0.5517790000 1.5745720000 0.1654980000
C -0.0250960000 0.1875610000 -0.2632630000
C 1.4407390000 -0.1335570000 0.0846220000
H 2.1070200000 0.6832750000 -0.2008440000
H 1.7786730000 -1.0448310000 -0.4194340000
H 1.5549180000 -0.2908070000 1.1613890000
C -0.9678820000 -0.9933860000 0.0694290000
H -0.0800880000 0.3458170000 -1.3644530000
H -0.9881110000 -1.1795840000 1.1473140000
H -0.6265260000 -1.9142870000 -0.4144990000
H -1.9923880000 -0.7978480000 -0.2549970000
