22
0 1
C -1.3634950000 0.0994200000 -0.0017280000
C -0.9130770000 1.4248320000 -0.0056820000
C 0.4535750000 1.6921450000 -0.0071710000
C -0.4644310000 -0.9622880000 0.0038850000
C 0.9093400000 -0.6800690000 0.0026780000
C 1.3784600000 0.6289720000 -0.0034200000
H -1.6453020000 2.2231500000 -0.0130980000
N 0.9192400000 3.0072040000 -0.0744130000
H 0.2629910000 3.7057140000 0.2424130000
H 1.8393890000 3.1544370000 0.3136110000
O -2.7198260000 -0.0511300000 0.0003490000
C -3.2530260000 -1.3669990000 0.0033330000
H -2.9496050000 -1.9258910000 -0.8888560000
H -4.3356630000 -1.2489090000 0.0032170000
H -2.9494110000 -1.9221250000 0.8978860000
H 2.4372280000 0.8495900000 -0.0179180000
O 1.7174240000 -1.7812420000 0.0080640000
C 3.1233390000 -1.5917860000 -0.0039300000
H 3.5581810000 -2.5902790000 -0.0020070000
H 3.4645080000 -1.0482490000 0.8846210000
H 3.4503590000 -1.0572710000 -0.9030200000
H -0.7722520000 -1.9969850000 0.0089520000
