20
0 1
Si -0.3134090000 1.1415330000 0.0000000000
Si 0.3134090000 -1.1415330000 0.0000000000
C 0.3134090000 2.0274870000 1.5488520000
H -1.8038440000 1.2138050000 0.0000000000
C 0.3134090000 2.0274870000 -1.5488520000
C -0.3134090000 -2.0274870000 -1.5488520000
C -0.3134090000 -2.0274870000 1.5488520000
H 1.8038440000 -1.2138050000 0.0000000000
H 1.4055180000 1.9987240000 -1.6053850000
H 0.0054670000 3.0775590000 -1.5471070000
H -0.0811780000 1.5666190000 -2.4585400000
H -0.0811780000 1.5666190000 2.4585400000
H 0.0054670000 3.0775590000 1.5471070000
H 1.4055180000 1.9987240000 1.6053850000
H -1.4055180000 -1.9987240000 1.6053850000
H 0.0811780000 -1.5666190000 2.4585400000
H -0.0054670000 -3.0775590000 1.5471070000
H -1.4055180000 -1.9987240000 -1.6053850000
H -0.0054670000 -3.0775590000 -1.5471070000
H 0.0811780000 -1.5666190000 -2.4585400000
