15
0 1
C 0.5704690000 -1.2050530000 0.2750290000
C 1.9285880000 -1.2147030000 -0.0259010000
C 2.5824880000 -0.0000070000 -0.1718030000
C 1.9285960000 1.2147000000 -0.0259460000
C 0.5704770000 1.2050700000 0.2749840000
C -0.1346780000 0.0000140000 0.4295720000
H 0.0574840000 -2.1539210000 0.3917550000
H 2.4817060000 -2.1378240000 -0.1460530000
Si -1.9515730000 0.0000280000 0.8256120000
H 2.4817200000 2.1378120000 -0.1461330000
F 3.8993880000 -0.0000170000 -0.4613860000
H 0.0574990000 2.1539460000 0.3916740000
Cl -3.1109040000 -0.0000290000 -0.9158150000
H -2.3205760000 1.2204910000 1.5679140000
H -2.3205800000 -1.2203840000 1.5679950000
