17
0 1
C -3.0498140000 -0.7233170000 -0.1042350000
C -1.9954530000 -1.5258820000 0.3258990000
C -0.7164450000 -0.9910370000 0.4471620000
C -2.8251860000 0.6189620000 -0.4140430000
C -1.5509610000 1.1549270000 -0.2911690000
C -0.4826360000 0.3560570000 0.1412690000
H -4.0450590000 -1.1427860000 -0.1997250000
H -2.1678050000 -2.5692480000 0.5630250000
H 0.0945060000 -1.6330430000 0.7667870000
H -3.6449450000 1.2434180000 -0.7500510000
H -1.3537810000 2.1942810000 -0.5221900000
C 0.8563640000 1.0021800000 0.2774010000
C 2.0592420000 0.1723420000 0.7343180000
Cl 2.6145790000 -0.9637280000 -0.5671110000
H 1.8420880000 -0.4337980000 1.6125610000
H 2.8817360000 0.8531300000 0.9314040000
O 1.0218440000 2.1857530000 0.0674320000
