11
0 1
C 0.0002420000 -0.0000580000 -0.5477850000
N 1.4354080000 0.0659720000 -0.0431550000
N -0.7746430000 1.2097790000 -0.0432500000
O 1.6684240000 0.7878240000 0.8982750000
O 2.1955870000 -0.6549030000 -0.6553890000
O -1.5165040000 1.0505640000 0.8979990000
O -0.5308390000 2.2284540000 -0.6558010000
N -0.6602080000 -1.2760640000 -0.0434920000
H 0.0003460000 0.0000400000 -1.6312720000
O -1.6650860000 -1.5732640000 -0.6552530000
O -0.1522940000 -1.8383640000 0.8985770000
