30
0 1
B 0.6734270000 -1.8134020000 -0.4832620000
B -0.6758860000 -1.8126270000 0.4872110000
C -1.9515110000 -0.9408470000 0.3559290000
C -2.0452540000 0.0761680000 -0.6130250000
C -3.0530860000 -1.1412580000 1.2133910000
C -4.1930590000 -0.3538050000 1.0935220000
C -4.2626520000 0.6451620000 0.1276230000
C -3.1850350000 0.8787950000 -0.7424920000
H -3.0035920000 -1.9170610000 1.9684790000
H -5.0387080000 -0.5113050000 1.7544390000
C 1.9481280000 -0.9385200000 -0.3569970000
C 2.0421630000 0.0827940000 0.6074720000
C 3.0507940000 -1.1444440000 -1.2115150000
C 4.1918670000 -0.3581340000 -1.0937590000
C 4.2609090000 0.6462470000 -0.1334890000
C 3.1835220000 0.8830960000 0.7358450000
H 3.0019510000 -1.9248230000 -1.9618770000
H 5.0388510000 -0.5212630000 -1.7515670000
N -3.2778750000 1.8420170000 -1.7485880000
N 3.2297380000 1.9309180000 1.6585290000
H -1.2074660000 0.2497480000 -1.2826800000
H 1.2014230000 0.2640620000 1.2715240000
H -5.1594410000 1.2512250000 0.0386040000
H 5.1536700000 1.2595700000 -0.0540480000
H -3.9195590000 2.5991880000 -1.5647640000
H -2.3942790000 2.1743270000 -2.1061960000
H 4.1560680000 2.2037110000 1.9531200000
H 2.6003090000 1.8360610000 2.4422320000
H -0.6875890000 -2.6251010000 1.3775860000
H 0.6868910000 -2.6302590000 -1.3692050000
