16
0 1
C -0.7779230000 0.8267190000 0.3473260000
O 0.1764920000 -0.2411090000 0.4312060000
B 1.4644660000 -0.0803170000 0.0109610000
O 2.3472410000 -1.1243020000 0.1270230000
O 1.8871550000 1.1048230000 -0.5274400000
C -2.1830410000 0.2509120000 0.4490130000
H -0.6441520000 1.3667410000 -0.5956750000
H -0.5938480000 1.5318870000 1.1648590000
C -2.5460450000 -0.6818930000 -0.7088060000
H -2.8866970000 1.0904280000 0.4908880000
H -2.2724150000 -0.2823620000 1.4015730000
H -2.5049830000 -0.1547920000 -1.6674050000
H -3.5560550000 -1.0830180000 -0.5917660000
H -1.8518420000 -1.5232520000 -0.7593870000
H 2.8113080000 1.0635170000 -0.7886460000
H 1.9313090000 -1.8972860000 0.5192460000
