18
0 1
C 2.0554420000 1.3038610000 -0.2509680000
C 0.7134850000 0.9519980000 -0.3769160000
C 3.0149820000 0.3498480000 0.0754450000
C 2.6142790000 -0.9714030000 0.2716970000
C 1.2753880000 -1.3281380000 0.1676930000
C 0.2988540000 -0.3710360000 -0.1506260000
H 0.9714360000 -2.3552480000 0.3428030000
H 4.0585400000 0.6269710000 0.1643380000
H 3.3487390000 -1.7306390000 0.5171470000
H 2.3513770000 2.3311400000 -0.4335480000
H -0.0052990000 1.6933770000 -0.7059580000
B -2.2308540000 0.0033660000 0.0400790000
O -2.2392010000 1.2692640000 0.5727150000
O -3.4284020000 -0.6113090000 -0.2212220000
H -4.1694320000 -0.0651440000 0.0552880000
H -1.3727570000 1.5764020000 0.8544230000
N -1.0469350000 -0.7485600000 -0.2534730000
H -1.1935440000 -1.7281940000 -0.4504670000
