28
0 1
C -3.3874050000 -0.5875530000 0.8498520000
C -4.7612860000 -0.7939660000 0.8625000000
C -5.5688210000 -0.0472840000 0.0082680000
C -5.0284980000 0.8994250000 -0.8591250000
C -3.6550860000 1.0989090000 -0.8665360000
C -2.8270570000 0.3608780000 -0.0138590000
H -2.7530760000 -1.1666670000 1.5070570000
H -5.2045890000 -1.5257910000 1.5246700000
C -1.3685060000 0.6374290000 -0.0866800000
O -0.8229380000 1.4069750000 -0.8203200000
O -0.6997120000 -0.1391430000 0.8510040000
O 0.6997090000 0.1390900000 0.8510120000
C 1.3685160000 -0.6374950000 -0.0866530000
O 0.8229560000 -1.4070300000 -0.8203100000
C 2.8270610000 -0.3609090000 -0.0138460000
C 3.3873960000 0.5875350000 0.8498590000
C 3.6551000000 -1.0989200000 -0.8665310000
C 5.0285080000 -0.8994040000 -0.8591330000
C 4.7612720000 0.7939800000 0.8624960000
C 5.5688160000 0.0473160000 0.0082560000
H 2.7530590000 1.1666350000 1.5070700000
H 5.2045650000 1.5258150000 1.5246620000
H -5.6757170000 1.4662910000 -1.5151800000
H 5.6757340000 -1.4662560000 -1.5151930000
H -3.2065760000 1.8259910000 -1.5315270000
H 3.2066000000 -1.8260120000 -1.5315180000
Cl -7.3000430000 -0.3053360000 0.0237090000
Cl 7.3000330000 0.3054070000 0.0236820000
