8
0 1
F 1.9256340000 -0.6863520000 -0.0000410000
O 1.1620430000 0.7300500000 0.0000150000
N -0.0840760000 0.6411590000 0.0000200000
N -0.7435960000 -0.3865280000 0.0000240000
C -2.1939550000 -0.1681660000 -0.0000050000
H -2.6027390000 -0.6632560000 -0.8827610000
H -2.4641120000 0.8898200000 -0.0000320000
H -2.6027660000 -0.6632170000 0.8827600000
