16
0 2
C -0.0000250000 -0.3536470000 1.8662090000
Si -0.0000010000 -0.0121980000 0.0424490000
H -0.9112040000 -0.4440390000 2.4530390000
H 0.9111400000 -0.4440500000 2.4530590000
C -1.5466350000 -0.7618500000 -0.7292630000
H -1.5733450000 -1.8472740000 -0.5962140000
H -1.5906840000 -0.5563580000 -1.8035580000
H -2.4543240000 -0.3495100000 -0.2775310000
C 1.5465700000 -0.7619930000 -0.7292510000
H 1.5906480000 -0.5565010000 -1.8035450000
H 1.5731790000 -1.8474200000 -0.5962040000
H 2.4542940000 -0.3497380000 -0.2775090000
C 0.0000890000 1.8514260000 -0.2657140000
H -0.8829040000 2.3272260000 0.1708550000
H 0.0001060000 2.0676770000 -1.3394240000
H 0.8831200000 2.3271430000 0.1708670000
