8
0 1
Si -1.5382100000 0.0000000000 -0.3637950000
Si 0.6452880000 0.0000000000 0.5238750000
Cl 1.6175350000 1.6942510000 -0.1686580000
Cl 1.6175350000 -1.6942510000 -0.1686580000
H 0.7309680000 0.0000000000 1.9933670000
F -2.3118520000 -1.2890090000 0.1851480000
H -1.6129000000 0.0000010000 -1.8327850000
F -2.3118520000 1.2890090000 0.1851490000
