7
0 2
Si -0.9640800000 -1.0256450000 -0.4374840000
C 0.5953020000 0.0204080000 -0.0061790000
Cl -2.6758630000 0.0554290000 -0.0107320000
Cl 0.6505040000 0.4265310000 1.7462420000
Cl 0.6614600000 1.5235000000 -0.9792670000
Cl 2.0022090000 -1.0371690000 -0.4192300000
H -0.9259650000 -2.2243800000 0.4326260000
