11
0 1
O 0.3640900000 -0.8492810000 -0.2762030000
N 1.3405800000 0.1120030000 0.0015490000
O 0.9673850000 1.0850890000 0.6296770000
O 2.4308760000 -0.1431930000 -0.4159420000
Si -1.2416400000 -0.5690790000 0.3021570000
C -2.0562980000 0.8727770000 -0.5446810000
H -1.5835680000 1.8170460000 -0.2707000000
H -3.1095950000 0.9165570000 -0.2484890000
H -2.0188120000 0.7611410000 -1.6314440000
H -1.2020470000 -0.4349280000 1.7691810000
H -1.8480950000 -1.8543110000 -0.0917610000
