15
0 1
C 1.8707490000 -0.2129580000 0.5299980000
C 2.5695990000 0.7323860000 -0.4416740000
H 1.9506570000 1.6021160000 -0.6721850000
H 2.7998420000 0.2265350000 -1.3816260000
S 0.3123620000 -0.9693600000 -0.1307780000
H 1.6408430000 0.2804210000 1.4763430000
Si -1.1253260000 0.6065100000 0.1980560000
H 2.5059790000 -1.0703800000 0.7602090000
C -2.8174970000 -0.0727540000 -0.2340410000
H -2.8573150000 -0.3906790000 -1.2788500000
H -3.5790590000 0.6983770000 -0.0858240000
H -3.0700280000 -0.9288690000 0.3958530000
H 3.5082970000 1.0921170000 -0.0068450000
H -0.8223390000 1.7985730000 -0.6325260000
H -1.0572010000 1.0303640000 1.6194170000
