8
0 2
F -2.4836860000 0.0201590000 -0.0848930000
B -1.3845670000 -0.4505150000 -0.5978870000
P 0.3960640000 -0.1001190000 0.0884390000
O 0.8030540000 -1.1419730000 1.0438000000
O 1.3735500000 0.0261610000 -1.1917630000
H 1.7898040000 -0.8187500000 -1.4033890000
O 0.3626200000 1.4329120000 0.5517560000
H 1.2314590000 1.8548810000 0.5999390000
