14
0 1
C 1.7180600000 0.4088140000 0.2010340000
O 0.6531050000 -0.4469610000 -0.2964990000
P -0.8770970000 -0.1254100000 -0.0911540000
O -1.7846050000 -1.1274690000 -0.6409000000
O -1.0734220000 0.1352950000 1.4874310000
C 3.0361170000 -0.2736470000 -0.0974880000
H 1.5726560000 0.5543190000 1.2744970000
H 1.6419660000 1.3767270000 -0.2991380000
H 3.0905270000 -1.2447820000 0.3984980000
H 3.8628870000 0.3462050000 0.2600310000
H 3.1561570000 -0.4266480000 -1.1717030000
O -0.9638430000 1.3642540000 -0.6657010000
H -1.8679650000 1.6966490000 -0.7008150000
H -1.4747080000 -0.6332700000 1.9100120000
