20
0 1
C -1.1102010000 -1.4751550000 0.7896700000
Si 0.4850120000 -1.8453030000 -0.1801980000
C 1.7468570000 -0.4434120000 0.0775480000
H 0.1857730000 -2.0030870000 -1.6192640000
H 1.0853630000 -3.0778990000 0.3690030000
S 2.2934670000 -0.1468250000 1.6020100000
S 2.2027160000 0.3923970000 -1.3682270000
C 3.3953560000 1.6422790000 -0.8127640000
H 3.7013060000 2.1855590000 -1.7070760000
H 4.2537390000 1.1586730000 -0.3472990000
H 2.9239680000 2.3162280000 -0.0980360000
C -1.9644130000 -0.3971240000 0.1818430000
S -2.9696330000 -0.6590830000 -1.0926160000
S -1.7283980000 1.1435080000 0.9812600000
C -2.7810610000 2.2855160000 0.0493530000
H -2.6591470000 3.2570560000 0.5303840000
H -3.8206490000 1.9650050000 0.0996530000
H -2.4612080000 2.3330720000 -0.9906750000
H -0.8145820000 -1.2414080000 1.8175650000
H -1.6743920000 -2.4115380000 0.7957980000
