8
0 1
P -1.2952820000 -0.1214450000 -0.0177260000
N 0.4236790000 0.0141210000 -0.4172920000
O 1.0276000000 -1.1341360000 0.2006700000
O 0.9807830000 1.1667560000 0.2057880000
H 1.6432300000 1.4624520000 -0.4312900000
H 1.6126910000 -1.4687760000 -0.4890330000
H -1.6204790000 1.1743660000 -0.4884680000
H -1.2390200000 0.2938270000 1.3440630000
