15
0 1
C 0.0085180000 -1.2098030000 0.3078160000
C 1.3674490000 -1.1936260000 0.0136060000
C 2.0655960000 0.0000100000 -0.1379900000
C 1.3674320000 1.1936360000 0.0136110000
C 0.0085010000 1.2097930000 0.3078200000
C -0.6841550000 -0.0000100000 0.4554920000
H -0.4966880000 -2.1611420000 0.4205510000
Cl 2.2300130000 -2.7081750000 -0.1679340000
Si -2.5128000000 -0.0000240000 0.8434240000
H -0.4967170000 2.1611250000 0.4205590000
Cl -3.6366990000 0.0000030000 -0.9121070000
Cl 2.2299760000 2.7081970000 -0.1679250000
H 3.1224450000 0.0000170000 -0.3648290000
H -2.8729210000 1.2224840000 1.5845650000
H -2.8729090000 -1.2225620000 1.5845220000
