16
0 1
C 0.6667330000 -1.3702570000 1.2059370000
C 0.6667330000 -2.7619570000 1.2060370000
C 0.6676860000 -3.4603340000 -0.0000000000
C 0.6667330000 -2.7619570000 -1.2060370000
C 0.6667330000 -1.3702570000 -1.2059370000
C 0.6686010000 0.8473680000 0.0000000000
C 0.6762150000 -0.6596800000 -0.0000000000
S -1.1034890000 1.3364150000 0.0000000000
Cl -0.9435590000 3.4193650000 0.0000000000
H 1.1435160000 1.2562640000 -0.8915890000
H 1.1435160000 1.2562640000 0.8915890000
H 0.6644440000 -0.8279120000 2.1454540000
H 0.6672100000 -3.3008660000 2.1465740000
H 0.6693890000 -4.5443570000 -0.0000000000
H 0.6672100000 -3.3008660000 -2.1465740000
H 0.6644440000 -0.8279120000 -2.1454540000
