21
0 1
C 3.3828220000 -0.1689140000 0.3870320000
O 3.0255900000 -0.1332200000 1.5245660000
O 2.6686430000 0.3752660000 -0.6712420000
S 1.1423880000 1.0423080000 -0.3538100000
C 0.2433800000 -0.5331750000 -0.2857290000
O 0.8710730000 -1.5586490000 -0.3832150000
C 4.6409900000 -0.7951920000 -0.1521120000
H 5.2861840000 -1.0757370000 0.6778140000
H 5.1552520000 -0.1082900000 -0.8256850000
H 4.3677260000 -1.6835480000 -0.7264050000
C -1.2505310000 -0.5457760000 -0.1098940000
C -1.8281170000 -1.8275890000 -0.1013550000
C -3.1928700000 -2.0111650000 0.0498050000
C -4.0264450000 -0.9039360000 0.1995470000
C -3.4862440000 0.3759530000 0.1967780000
C -2.1131620000 0.5472740000 0.0427640000
H -3.6060400000 -3.0125010000 0.0521380000
H -4.1179320000 1.2466470000 0.3136050000
H -1.1598660000 -2.6708550000 -0.2165910000
H -5.0959150000 -1.0314450000 0.3196010000
Cl -1.5205300000 2.1980450000 0.0555640000
