18
0 1
C 2.9073340000 -1.2031880000 -0.1528800000
C 1.5797760000 -1.2023360000 0.2670560000
C 3.5767690000 0.0000000000 -0.3649910000
C 2.9073340000 1.2031890000 -0.1528790000
C 1.5797760000 1.2023360000 0.2670560000
C 0.8957990000 -0.0000000000 0.4876180000
H 1.0696570000 -2.1455490000 0.4348560000
H 3.4199430000 -2.1455930000 -0.3106890000
H 4.6109980000 0.0000000000 -0.6894570000
H 3.4199430000 2.1455940000 -0.3106880000
H 1.0696570000 2.1455490000 0.4348560000
C -0.5535350000 -0.0000000000 0.9182870000
Si -1.6910810000 0.0000000000 -0.5820510000
Cl -3.6893130000 -0.0000000000 0.0424150000
H -0.7843790000 0.8796890000 1.5259920000
H -0.7843790000 -0.8796900000 1.5259920000
H -1.4937590000 -1.2126510000 -1.3994050000
H -1.4937600000 1.2126530000 -1.3994030000
