10
0 1
C -1.9664570000 0.8485050000 -0.0089490000
S -0.9995200000 -0.6703670000 -0.1579350000
H -1.4907160000 1.6816020000 -0.5272210000
H -2.1296900000 1.0887110000 1.0419860000
H -2.9279770000 0.6304400000 -0.4827870000
O 0.3879420000 -0.2054410000 0.7075800000
Si 1.7659580000 0.2061030000 -0.1437870000
H 2.7488480000 0.5826870000 0.8917540000
H 1.5016090000 1.3467590000 -1.0505690000
H 2.2620380000 -0.9372660000 -0.9401320000
