15
0 2
H -0.3609220000 2.6000620000 -0.3911700000
B -0.9407070000 1.5594490000 -0.4708860000
C -0.6753550000 0.2562640000 0.3128120000
C 0.8054470000 0.0213960000 0.7164290000
C -1.3729310000 -1.0183120000 -0.2022300000
H -0.9499300000 -1.3457450000 -1.1551340000
H -2.4384100000 -0.8431220000 -0.3651210000
H -1.2664570000 -1.8435700000 0.5096640000
H -1.2059430000 0.5609860000 1.2449410000
C 1.7360200000 -0.2615550000 -0.4680350000
H 0.8532190000 -0.8174860000 1.4222760000
H 1.1695650000 0.9016310000 1.2554060000
H 1.4376820000 -1.1594530000 -1.0153180000
H 2.7647160000 -0.4117650000 -0.1294780000
H 1.7409320000 0.5744630000 -1.1754870000
