40
0 2
Si -1.9639060000 1.2766420000 -0.0202930000
Si -0.0002240000 0.0008000000 -0.3518170000
C -2.6407290000 1.0577890000 1.7348820000
C -3.3031600000 0.7428540000 -1.2441100000
C -1.6064020000 3.1134470000 -0.2954350000
Si -0.1242530000 -2.3383020000 -0.0204950000
Si 2.0875430000 1.0619950000 -0.0203640000
H -0.8686060000 3.4956210000 0.4151910000
H -2.5240290000 3.6977060000 -0.1657030000
H -1.2311820000 3.3027190000 -1.3048020000
H -2.8939880000 0.0140370000 1.9412770000
H -3.5504170000 1.6540950000 1.8690400000
H -1.9150350000 1.3791210000 2.4868400000
H -3.5651570000 -0.3114940000 -1.1227130000
H -2.9771830000 0.8890480000 -2.2775500000
H -4.2137820000 1.3329010000 -1.0917050000
C 2.2430110000 1.7442600000 1.7397400000
H 3.2144710000 2.2337570000 1.8732780000
H 2.1625730000 0.9491910000 2.4862340000
H 1.4661600000 2.4831960000 1.9556260000
C 2.2913110000 2.4975900000 -1.2346500000
H 2.2479540000 2.1510080000 -2.2708230000
H 3.2597870000 2.9874390000 -1.0839440000
H 1.5118850000 3.2525900000 -1.1023070000
C 3.4983330000 -0.1643140000 -0.3090860000
H 3.4726410000 -0.5753050000 -1.3219740000
H 3.4611840000 -1.0004220000 0.3945490000
H 4.4634910000 0.3371130000 -0.1773110000
C 0.4113250000 -2.8145950000 1.7328290000
H 1.4416210000 -2.5094940000 1.9359670000
H 0.3533590000 -3.9007810000 1.8667330000
H -0.2286490000 -2.3490700000 2.4873880000
C -1.8952420000 -2.9468960000 -0.2875320000
H -2.5926690000 -2.4960880000 0.4239930000
H -1.9417580000 -4.0333270000 -0.1537880000
H -2.2508430000 -2.7206610000 -1.2964320000
C 1.0026120000 -3.2316380000 -1.2491700000
H 2.0476450000 -2.9328620000 -1.1312670000
H 0.7098620000 -3.0215530000 -2.2815580000
H 0.9460660000 -4.3153430000 -1.0974810000
