15
0 1
C -2.2441420000 -0.5596400000 0.0000010000
O -1.1087590000 0.2981910000 0.0000010000
C 0.1218970000 -0.3978220000 -0.0000000000
C 1.2125680000 0.6594710000 -0.0000000000
C -3.4934140000 0.3012850000 0.0000020000
H 0.2155890000 -1.0375850000 -0.8889010000
H 0.2155900000 -1.0375860000 0.8889000000
Cl 2.8476570000 -0.1194220000 -0.0000020000
H 1.1540390000 1.2825180000 0.8897920000
H 1.1540390000 1.2825180000 -0.8897920000
H -2.2193150000 -1.2100690000 0.8871740000
H -2.2193160000 -1.2100690000 -0.8871720000
H -3.5166490000 0.9403460000 0.8853820000
H -4.3888820000 -0.3255460000 0.0000030000
H -3.5166510000 0.9403460000 -0.8853770000
