15
0 1
Si 1.1244660000 -1.1767270000 0.2108390000
Si -1.0415540000 -1.1024730000 -0.7100080000
C 1.8644640000 0.5885620000 -0.0254780000
O 1.3112360000 1.5719130000 -0.3914420000
H 2.0425670000 -2.1229520000 -0.4612440000
H 1.1354570000 -1.4297190000 1.6680860000
F 3.1995010000 0.6429450000 0.2962940000
C -2.0361020000 0.2593860000 0.2647530000
H -1.7218330000 -2.3978520000 -0.4928130000
H -0.9268740000 -0.8245000000 -2.1630600000
O -2.4007780000 -0.0390160000 1.3822680000
C -2.2876810000 1.6177170000 -0.3450470000
H -2.8380340000 1.5112970000 -1.2857450000
H -1.3268800000 2.0847950000 -0.5860890000
H -2.8484350000 2.2440590000 0.3506030000
