19
0 1
C 0.4360470000 1.1599880000 -0.0029090000
C -0.9554990000 1.1993220000 0.0008890000
C -1.7032320000 0.0167080000 -0.0002530000
C 1.1155590000 -0.0627250000 -0.0001990000
C 0.3668660000 -1.2474620000 -0.0050100000
C -1.0185350000 -1.2087440000 -0.0169890000
H 0.9855580000 2.0936320000 0.0000030000
H -1.4590730000 2.1592130000 0.0120110000
P -3.5469210000 0.0036330000 -0.0916980000
H -1.5762270000 -2.1395990000 -0.0399400000
H 0.9004850000 -2.1899490000 -0.0076460000
C 2.6126490000 -0.1674910000 0.0043220000
O 3.1558310000 -1.2544100000 0.0077250000
C 3.4352030000 1.1087680000 0.0047440000
H 3.2177010000 1.7155610000 -0.8790790000
H 4.4901120000 0.8404080000 0.0088070000
H 3.2117530000 1.7187260000 0.8849300000
H -3.7485660000 1.3800980000 0.1770560000
H -3.7989400000 -0.3874840000 1.2499650000
