12
0 1
F 2.4892680000 -0.6873650000 -0.0001470000
N 0.0083150000 -0.4786130000 0.0000030000
C -1.6179280000 1.3539490000 -0.0000300000
C -1.2140620000 -0.0990370000 -0.0000160000
C -2.2896150000 -1.1505470000 -0.0000180000
S 1.3183170000 0.4959130000 0.0001150000
H -1.2048480000 1.8584830000 -0.8824550000
H -1.2048370000 1.8584900000 0.8823850000
H -2.6996530000 1.4903770000 -0.0000270000
H -1.8485970000 -2.1462450000 0.0000010000
H -2.9335440000 -1.0426740000 -0.8802280000
H -2.9335790000 -1.0426540000 0.8801640000
