13
0 1
N -2.3921940000 -0.3539150000 -0.0793390000
P -1.3263270000 1.1592520000 -0.4105170000
C 0.0068040000 0.7560980000 0.7921420000
P 0.9269570000 -0.8150110000 0.3926540000
H -0.3658240000 0.6862430000 1.8142830000
H 0.7536630000 1.5574060000 0.7435870000
N 2.5683070000 -0.0199950000 -0.1470270000
O 2.8651340000 1.1108650000 0.2064350000
O 3.2788960000 -0.7721930000 -0.7910570000
O -1.8313250000 -1.3735100000 0.3135570000
O -3.5730910000 -0.2550180000 -0.3433610000
H -2.1495790000 1.9553660000 0.4199590000
H 0.5617590000 -0.9630020000 -0.9627600000
