15
0 1
Si 0.0203160000 0.0438100000 -0.8079140000
N 1.0586730000 -1.1446890000 0.1688960000
N -1.6643850000 -0.0979870000 -0.0268640000
O 0.7031200000 -1.6588340000 1.2142160000
O 2.1658340000 -1.2794320000 -0.3601370000
O -2.1093700000 0.8589710000 0.6011370000
O -2.2438960000 -1.1634140000 -0.2028440000
C 0.7308320000 1.7424770000 -0.6181140000
C 1.0733910000 2.1708470000 0.8221630000
H 0.0022630000 2.4316240000 -1.0618800000
H 1.6193030000 1.7769600000 -1.2590660000
H 0.1891890000 2.1493150000 1.4604320000
H 1.4687680000 3.1887250000 0.8258450000
H 1.8330500000 1.5207340000 1.2619040000
H -0.1078620000 -0.5202350000 -2.1539380000
