15
0 2
F 2.0943200000 -1.1734320000 0.0501320000
B 0.9162510000 -0.8004800000 -0.4135870000
C 0.0759930000 0.3526080000 0.2493690000
C -1.3834010000 0.4267050000 -0.2304350000
C 0.8320190000 1.6858220000 0.0202800000
H 0.8864880000 1.9333420000 -1.0440730000
H 1.8522600000 1.6451460000 0.4093020000
H 0.3114420000 2.5057730000 0.5233960000
H 0.0827560000 0.1478620000 1.3329800000
C -2.2027640000 -0.8205680000 0.1106550000
H -1.3939740000 0.5858590000 -1.3148630000
H -1.8594370000 1.3088850000 0.2143710000
H -1.7705110000 -1.7140550000 -0.3512290000
H -3.2326220000 -0.7289480000 -0.2443380000
H -2.2376260000 -0.9879820000 1.1919850000
