15
0 2
Cl 2.1195850000 -0.8081450000 0.0797710000
B 1.5767710000 0.7563720000 -0.4841910000
C 0.3028380000 1.5222310000 -0.0344190000
C -0.8828710000 0.7208890000 0.5459780000
H 0.6954160000 2.2165260000 0.7298190000
C -1.6317200000 -0.1030300000 -0.5081680000
H -1.5851660000 1.4175410000 1.0187340000
H -0.5234860000 0.0574860000 1.3399220000
C -2.8173830000 -0.8798370000 0.0703790000
H -0.9367760000 -0.8036920000 -0.9855810000
H -1.9846190000 0.5664350000 -1.3020950000
H -2.4897530000 -1.5840500000 0.8411330000
H -3.3341260000 -1.4523950000 -0.7043530000
H -3.5477120000 -0.2047550000 0.5273240000
H -0.0357540000 2.1819940000 -0.8426620000
