28
0 1
N -0.7865420000 -0.8471110000 -0.8136300000
N 0.4394600000 -0.8742520000 -0.9956920000
C 3.0101210000 0.4061030000 -0.3792480000
C 4.3602380000 0.2940830000 0.3539670000
H 4.2399210000 0.4057740000 1.4364900000
H 5.0457030000 1.0807880000 0.0207820000
H 4.8484480000 -0.6674040000 0.1708830000
C 2.3711610000 1.7925690000 -0.1798800000
H 2.1420910000 1.9795300000 0.8747880000
H 1.4442660000 1.8983480000 -0.7499050000
C -3.1096820000 0.4461820000 0.4219120000
C -2.4709540000 1.8463480000 0.3402320000
H -1.8639720000 2.0744820000 1.2216120000
H -3.2427710000 2.6193970000 0.2632100000
H -1.8301160000 1.9358250000 -0.5422380000
C -4.0143810000 0.1640240000 -0.7920280000
H -4.5283120000 -0.7968270000 -0.7010690000
H -3.4339350000 0.1426910000 -1.7175710000
H 3.0528750000 2.5839790000 -0.5095210000
H -4.7790800000 0.9422680000 -0.8908910000
Si -1.8053190000 -0.8947110000 0.6754160000
Si 1.8434660000 -0.9863610000 0.1333880000
H 3.1852770000 0.2603300000 -1.4522130000
H -3.7289740000 0.4094870000 1.3295170000
H 2.4085570000 -2.3154900000 -0.1948010000
H 1.5543970000 -0.9164040000 1.5930810000
H -2.3983430000 -2.2515880000 0.6290660000
H -1.0995280000 -0.6964860000 1.9710410000
