19
0 1
Si -1.9218200000 -0.7916950000 -0.6245060000
Si -2.9124650000 0.9287140000 0.6608220000
O -0.3965090000 -1.2146010000 -0.0989410000
H -1.8888000000 -0.3918060000 -2.0548210000
H -2.7005770000 -2.0404450000 -0.4932910000
H -4.3249170000 1.0698700000 0.2251440000
H -2.2287190000 2.2290110000 0.4640080000
C 0.7839870000 -0.5229710000 -0.0657830000
H -2.8903010000 0.5878780000 2.1031140000
C 1.8488290000 -1.1100160000 0.6218860000
C 0.9550920000 0.7140800000 -0.6909860000
C 3.0751150000 -0.4583230000 0.6835360000
C 3.2532340000 0.7792180000 0.0643980000
C 2.1894640000 1.3584680000 -0.6209310000
H 1.6931260000 -2.0709640000 1.0966330000
H 3.8966590000 -0.9204060000 1.2194760000
H 4.2104790000 1.2841720000 0.1156110000
H 2.3142620000 2.3186160000 -1.1088820000
H 0.1365200000 1.1698810000 -1.2366080000
