12
0 1
C -0.3101220000 0.0000000000 -0.3267760000
N 0.9524760000 -0.0000000000 0.4861720000
O 1.9584610000 -0.0000000000 -0.1720100000
C -1.0713710000 1.2752090000 0.0428150000
H -0.5021360000 2.1661820000 -0.2322310000
H -1.2669160000 1.3097180000 1.1175870000
C -1.0713710000 -1.2752080000 0.0428150000
H -0.0231380000 -0.0000000000 -1.3834220000
H -1.2669160000 -1.3097180000 1.1175870000
H -0.5021370000 -2.1661820000 -0.2322300000
H -2.0283020000 -1.3046510000 -0.4837730000
H -2.0283010000 1.3046520000 -0.4837730000
