17
0 1
Si 2.3190150000 0.1959470000 -0.4795060000
Si 0.5052110000 -0.4105850000 0.9047960000
C -1.1730150000 -0.4090840000 -0.0525770000
H 0.4687970000 0.4698340000 2.0980830000
H 0.7209030000 -1.8003160000 1.3781800000
H 2.3590920000 -0.6806310000 -1.6754300000
H 3.6010740000 0.0528440000 0.2530970000
N -1.8936890000 0.5981470000 -0.3436100000
H 2.1887740000 1.6018430000 -0.9328070000
C -1.6563240000 -1.7721060000 -0.5049220000
H -0.9000980000 -2.2739570000 -1.1190080000
H -2.5741610000 -1.6597660000 -1.0837480000
H -1.8458840000 -2.4230100000 0.3550440000
C -1.5056820000 1.9434400000 0.0295400000
H -1.4573430000 2.5572210000 -0.8749160000
H -0.5460050000 2.0257760000 0.5591230000
H -2.2883640000 2.3745690000 0.6613490000
