12
0 1
Cl 2.5282350000 0.1295450000 -0.8266960000
S 1.4361630000 -0.1569160000 0.9496630000
C -0.2357780000 -0.0427100000 0.3748490000
C -0.8957360000 1.1876270000 0.2951080000
C -0.9476030000 -1.2066520000 0.0531860000
N -2.2262110000 -1.2022760000 -0.3224270000
C -2.2265700000 1.1982010000 -0.1006570000
C -2.8423310000 -0.0179370000 -0.3966080000
H -0.3694920000 2.1026000000 0.5385260000
H -2.7809920000 2.1256990000 -0.1776210000
H -0.4538540000 -2.1718450000 0.1081250000
H -3.8826760000 -0.0433090000 -0.7080830000
