17
0 1
C -1.5453060000 -0.0260680000 -0.0000000000
C -0.9665110000 1.2559680000 -0.0000000000
C 0.4070270000 1.4013110000 -0.0000000000
C -0.7115300000 -1.1493960000 -0.0000000000
C 0.6716970000 -1.0082490000 0.0000000000
C 1.2392840000 0.2713860000 0.0000000000
H -1.1500100000 -2.1396610000 -0.0000000000
H 1.2920420000 -1.8936600000 0.0000000000
O 2.5703530000 0.5236160000 0.0000000000
C 3.4785980000 -0.5727220000 0.0000010000
H 4.4732190000 -0.1312330000 0.0000010000
H 3.3566610000 -1.1919930000 -0.8948840000
H 3.3566610000 -1.1919930000 0.8948850000
H -1.6051060000 2.1305340000 -0.0000000000
H 0.8687880000 2.3806460000 -0.0000000000
C -2.9652850000 -0.1788870000 -0.0000000000
N -4.1147030000 -0.3016600000 -0.0000000000
