24
0 1
C 2.2683350000 1.4901510000 -0.1281510000
C 0.9019850000 1.0191950000 -0.6496290000
C 3.3024690000 0.3564610000 -0.1516670000
H 2.1559290000 1.8560250000 0.9005780000
H 2.6210590000 2.3385230000 -0.7236660000
C 2.7995970000 -0.8742510000 0.6150180000
H 4.2531820000 0.7005100000 0.2680880000
H 3.5048490000 0.0749870000 -1.1932090000
C 1.4316470000 -1.3477740000 0.0977200000
H 2.7126680000 -0.6265400000 1.6804730000
H 3.5256100000 -1.6904680000 0.5425310000
C 0.3920210000 -0.2090280000 0.1273870000
H 1.0820010000 -2.1957570000 0.6956500000
H 1.5444580000 -1.7140330000 -0.9314420000
H 0.9900790000 0.7611550000 -1.7132600000
H 0.1715440000 1.8310390000 -0.5875750000
N -2.2910200000 0.4654900000 -0.0158910000
O -3.6081120000 0.0620160000 -0.4131880000
O -2.2891340000 0.5202160000 1.4124950000
H -2.3905210000 1.4621440000 1.5976020000
H -3.9806220000 0.8704910000 -0.7842570000
P -1.2178260000 -0.8326060000 -0.5809490000
H 0.2070380000 0.0755540000 1.1678410000
H -1.4910990000 -1.7793390000 0.4475990000
