12
0 2
Si -1.4058810000 -0.0000000000 0.1125180000
N 0.3193480000 0.0000000000 -0.0860790000
H -1.9027830000 1.2228680000 -0.5847630000
H -1.9027830000 -1.2228680000 -0.5847630000
C 1.1093640000 -1.2184520000 0.0053890000
H 1.8505080000 -1.2523830000 -0.8036590000
H 0.4680280000 -2.0963900000 -0.0893740000
H 1.6515110000 -1.2895460000 0.9591110000
C 1.1093640000 1.2184520000 0.0053890000
H 0.4680280000 2.0963900000 -0.0893740000
H 1.8505080000 1.2523830000 -0.8036590000
H 1.6515110000 1.2895460000 0.9591110000
