12
0 1
Si 2.2024660000 -0.0003090000 -0.0000260000
O 0.6627080000 -0.7091820000 0.0000270000
C -0.4332060000 0.0603550000 0.0000660000
O -0.4241670000 1.2679280000 0.0000040000
O -1.5182130000 -0.7136950000 0.0000220000
C -2.7717660000 -0.0056720000 -0.0000320000
H -2.8568810000 0.6199130000 0.8895090000
H -3.5368620000 -0.7783090000 -0.0000620000
H -2.8568080000 0.6199090000 -0.8895830000
H 3.1025620000 -1.1662500000 -0.0000610000
H 2.3903860000 0.8102710000 1.2168040000
H 2.3903000000 0.8102770000 -1.2168660000
