8
0 1
C -1.0147290000 0.4489500000 -0.1724290000
B 1.9499160000 0.5993000000 0.2613170000
O -2.0431390000 0.0372090000 0.2904210000
P 0.5617750000 -0.5198190000 -0.2261640000
H 2.8924150000 0.1555800000 0.8299470000
H 1.9300970000 1.7245100000 -0.1217160000
H -0.9315610000 1.4436000000 -0.6603240000
H 0.3663340000 -1.5142750000 0.7491740000
