9
0 1
Si 1.7523700000 -0.4692270000 0.0000010000
Si -0.1665070000 0.9023490000 -0.0000040000
H 2.9512830000 0.4012130000 0.0000130000
H 1.7542510000 -1.3177060000 -1.2122280000
H 1.7542330000 -1.3177150000 1.2122230000
C -1.6726400000 -0.1830070000 -0.0000140000
H -0.2554080000 1.7468380000 -1.2098340000
H -0.2554290000 1.7468110000 1.2098450000
N -2.5878820000 -0.8893020000 0.0000160000
