8
0 1
C -1.1021970000 -0.0000000000 -0.3981460000
Si 0.7687680000 0.0000000000 0.0503140000
Cl 0.9824920000 0.0000000000 2.0773550000
Cl 1.6182410000 1.6688820000 -0.7612320000
Cl -1.9072530000 -1.4703890000 0.2362910000
Cl -1.9072530000 1.4703900000 0.2362910000
Cl 1.6182410000 -1.6688820000 -0.7612320000
F -1.2250590000 -0.0000000000 -1.7536180000
