8
0 1
Si -0.0497870000 0.0000020000 -0.0758070000
B 1.6050360000 0.0000310000 -1.2402520000
Cl -1.1937370000 -1.6746990000 -0.5072010000
Cl -1.1937100000 1.6747530000 -0.5070750000
Cl 0.3420070000 -0.0000780000 1.9515280000
O 2.7991700000 0.0000120000 -0.6269340000
H 3.5557140000 0.0000390000 -1.2251760000
H 1.4952280000 0.0000910000 -2.4300620000
