9
0 2
S 1.0340990000 -0.0131060000 0.1581750000
O 2.0047320000 -1.0522720000 -0.1520190000
P -0.8807780000 -1.0747880000 -0.2738810000
C 1.1900790000 1.2919130000 -1.0713120000
H 2.1553080000 1.7633620000 -0.8763560000
H 1.1738760000 0.8449190000 -2.0641100000
Cl -2.2442920000 0.4393020000 0.0811080000
O 0.9913220000 0.6143350000 1.4644270000
H 0.3809640000 2.0071300000 -0.9323430000
