14
0 2
C 1.6362680000 -0.0479930000 0.3992270000
O 1.1880030000 1.0282030000 -0.3727230000
C -0.0000380000 1.6629650000 0.0335270000
O -1.1880600000 1.0281610000 -0.3727070000
C -1.6362590000 -0.0480700000 0.3992350000
O -1.2339430000 -1.3226290000 -0.1052380000
B 0.0000420000 -1.8245410000 -0.3151160000
O 1.2340030000 -1.3225800000 -0.1052150000
H -0.0000590000 2.6296020000 -0.4645930000
H -0.0000320000 1.7858170000 1.1284790000
H -2.7226720000 -0.0490890000 0.3407100000
H -1.3106900000 0.0573010000 1.4427170000
H 1.3107140000 0.0573790000 1.4427130000
H 2.7226800000 -0.0489620000 0.3406810000
