12
0 1
O -0.6949710000 0.7365480000 -0.4599970000
P -2.1211000000 0.0529460000 0.0155280000
O -3.0296360000 1.1703590000 0.2332030000
O -1.7493820000 -0.9391880000 1.1860230000
O 0.3313590000 -0.2970320000 -0.7078170000
C 1.4011270000 -0.0200770000 0.1078090000
F 1.0370850000 -0.0445440000 1.4161580000
Cl 2.1505480000 1.5693730000 -0.2073500000
Cl 2.5307910000 -1.3511610000 -0.2127700000
H -1.2493990000 -0.5252210000 1.9007200000
O -2.5046860000 -1.0210440000 -1.0790870000
H -3.0788590000 -0.6543480000 -1.7624670000
