7
0 1
C -1.3681580000 -0.0456540000 -0.0000080000
C 0.1252100000 -0.1433170000 -0.0000460000
H -1.6966520000 0.5118910000 0.8799430000
H -1.8047670000 -1.0417840000 -0.0000990000
H -1.6966850000 0.5120730000 -0.8798310000
O 0.8161620000 -1.1018760000 -0.0000710000
F 0.6807220000 1.1074060000 0.0000980000
