13
0 1
C 2.4641020000 0.5701660000 0.0869830000
C 1.5114100000 -0.3871780000 -0.6495050000
H 2.5521750000 0.3075140000 1.1444050000
H 2.1158850000 1.6043640000 0.0277880000
H 3.4668340000 0.5339960000 -0.3463090000
Si -0.2186410000 -0.4373690000 0.0122790000
H 1.8904370000 -1.4150990000 -0.6028480000
H 1.4531200000 -0.1332080000 -1.7130850000
Cl -1.1154710000 1.4578780000 -0.1595020000
O -0.3057780000 -0.8242240000 1.6043830000
H -0.5388900000 -0.1362880000 2.2315110000
O -1.0460820000 -1.5247300000 -0.8779340000
H -1.9537640000 -1.7283280000 -0.6382990000
