7
0 2
F -2.2019580000 0.1666850000 0.0000180000
S 0.4273740000 -0.6053750000 -0.0000270000
B -0.9429370000 0.5516210000 0.0000350000
C 1.8685700000 0.5349630000 0.0000100000
H 2.7577010000 -0.0952820000 -0.0003570000
H 1.8627820000 1.1563540000 0.8933700000
H 1.8624160000 1.1568800000 -0.8929810000
