34
0 1
O -0.0978980000 0.5358770000 0.5859840000
O -0.8133210000 -0.2770120000 -0.4085290000
C -2.1852870000 -0.4127030000 0.0270400000
C -2.2404800000 -1.1178980000 1.3868410000
H -3.2785350000 -1.2871080000 1.6860340000
H -1.7530030000 -0.5147400000 2.1532060000
H -1.7329960000 -2.0838960000 1.3327760000
C -2.8748910000 0.9547060000 0.0707180000
H -3.9298900000 0.8400460000 0.3342200000
H -2.8138330000 1.4430850000 -0.9047210000
H -2.4016040000 1.5989950000 0.8119070000
C -2.7773540000 -1.2958710000 -1.0761200000
H -2.7049910000 -0.8015530000 -2.0473630000
H -3.8308740000 -1.4948220000 -0.8655900000
H -2.2474310000 -2.2491070000 -1.1306970000
C 1.0683460000 1.1021730000 -0.0547160000
C 0.6506080000 2.0509390000 -1.1836960000
H 0.1280630000 1.5052690000 -1.9696990000
H 1.5299260000 2.5315130000 -1.6212860000
H -0.0128240000 2.8297380000 -0.8001080000
C 1.7081100000 1.8849510000 1.0979670000
H 1.0406640000 2.6820200000 1.4324350000
H 2.6450740000 2.3363600000 0.7624540000
H 1.9190080000 1.2358590000 1.9486400000
C 1.9889610000 -0.0118280000 -0.5967120000
C 2.3987560000 -1.0910350000 0.4108850000
H 2.8838910000 0.4671660000 -1.0128510000
H 1.4748650000 -0.4896070000 -1.4357850000
C 3.2044590000 -2.2192620000 -0.2410170000
H 1.4972370000 -1.5006140000 0.8742260000
H 2.9916650000 -0.6491930000 1.2188110000
H 2.6252860000 -2.7146740000 -1.0264490000
H 3.4882910000 -2.9798980000 0.4916160000
H 4.1243900000 -1.8407830000 -0.6985590000
