15
0 1
C -0.0030270000 -1.6000060000 0.4325140000
O 1.0593310000 -1.1905320000 -0.3868250000
C 1.7240870000 -0.0058020000 -0.0247180000
O 1.0677080000 1.1837340000 -0.3863230000
C 0.0077080000 1.5997780000 0.4327510000
O -1.2654220000 1.2351170000 -0.0588220000
B -1.8080150000 0.0060700000 -0.2871920000
H -2.9110970000 0.0097900000 -0.7334610000
O -1.2739670000 -1.2265980000 -0.0581740000
H 2.6567310000 -0.0089580000 -0.5840060000
H 1.9196710000 -0.0067350000 1.0597620000
H 0.0186800000 2.6886590000 0.4279080000
H 0.1447000000 1.2299990000 1.4583490000
H 0.1369080000 -1.2317640000 1.4582650000
H 0.0006750000 -2.6889350000 0.4270090000
