11
0 1
O -0.0293180000 -0.7074420000 0.0487430000
C 0.8125330000 0.2803340000 -0.1864370000
Si -1.7096220000 -0.5952180000 -0.3104020000
O 0.5718030000 1.3562210000 -0.6346210000
Cl 2.4666490000 -0.2049440000 0.2745550000
C -2.5195080000 0.7141470000 0.7314630000
H -2.3776860000 0.5164200000 1.7970830000
H -3.5957100000 0.7300520000 0.5314110000
H -2.1136060000 1.7011490000 0.5006640000
H -2.1709710000 -1.9537370000 0.0222380000
H -1.8383790000 -0.3338880000 -1.7563370000
