17
0 1
C -1.6818700000 1.2740290000 0.0000000000
C -0.6638630000 0.3077160000 0.0000030000
C 0.7356260000 0.8060440000 0.0000050000
O 1.0344300000 1.9754380000 -0.0000000000
C 1.8964870000 -0.2340600000 -0.0000020000
C -3.0142600000 0.8890590000 -0.0000010000
C -3.3469790000 -0.4666460000 0.0000000000
C -2.3433520000 -1.4328600000 0.0000040000
C -1.0053670000 -1.0527650000 0.0000050000
H -0.2390310000 -1.8151330000 0.0000080000
H -4.3882160000 -0.7687530000 -0.0000010000
H -2.6021480000 -2.4850840000 0.0000050000
H -1.4002010000 2.3195690000 -0.0000010000
H -3.7947800000 1.6408520000 -0.0000040000
F 3.0816860000 0.3687100000 0.0000050000
F 1.8308440000 -1.0309220000 1.0904230000
F 1.8308480000 -1.0309050000 -1.0904390000
