28
0 1
N 0.6671450000 -1.0223120000 0.3257910000
N 0.4680290000 -1.7538440000 1.4990390000
O 1.3072380000 -1.5847450000 2.3370770000
S -0.5972530000 -1.1979190000 -0.8478730000
O -1.1457650000 -2.5085960000 -0.6518450000
C -1.7999530000 0.0140810000 -0.3401210000
C 1.7177390000 -0.0557970000 0.1702310000
C 1.6869320000 1.1216280000 0.9184390000
C 2.7193710000 2.0445280000 0.7852410000
C 3.7715360000 1.7937550000 -0.0938620000
C 3.7955460000 0.6154410000 -0.8377290000
C 2.7712390000 -0.3167810000 -0.7044320000
H 2.7016290000 2.9583580000 1.3675450000
H 4.6129450000 0.4197760000 -1.5217240000
H 2.7751470000 -1.2361670000 -1.2748830000
C -2.7316890000 -0.3293870000 0.6399060000
C -1.7962990000 1.2711340000 -0.9420670000
H 0.8655040000 1.3039520000 1.5999190000
O -0.0084030000 -0.7715730000 -2.0882590000
C -2.7460100000 2.2081440000 -0.5420940000
C -3.6721570000 0.6182580000 1.0300110000
C -3.6781370000 1.8835510000 0.4417780000
H -2.7599660000 3.1881680000 -1.0041500000
H -4.4164720000 2.6159230000 0.7474630000
H -1.0731650000 1.4962700000 -1.7147140000
H -2.7179270000 -1.3204490000 1.0747960000
H -4.4047550000 0.3664500000 1.7876090000
H 4.5736310000 2.5155070000 -0.1973080000
