8
0 1
F 1.7318750000 1.2164170000 -0.0424640000
F 1.9351060000 -1.0568310000 -0.0029370000
B 1.2000830000 0.0211690000 -0.0239080000
S -0.6845550000 -0.1613310000 0.0476510000
O -1.1051120000 -1.2409960000 -0.7937410000
O -1.0450770000 -0.0669540000 1.4436550000
O -1.1837370000 1.2050980000 -0.6798690000
H -1.3789650000 1.8619920000 0.0053630000
