8
0 1
Cl 1.4395540000 1.6189400000 -0.0265680000
Cl 1.7181690000 -1.4193220000 -0.0061660000
B 0.7611730000 0.0208970000 -0.0283750000
S -1.1257860000 -0.1991410000 0.0409640000
O -1.5361250000 -1.2609660000 -0.8292120000
O -1.4571520000 -0.1701860000 1.4487000000
O -1.7072360000 1.1664590000 -0.6247220000
H -1.8704540000 1.8058140000 0.0848110000
