10
0 1
C 0.0105210000 0.3196420000 0.0190470000
P 1.7743060000 -0.2947770000 -0.1218800000
O -0.8562650000 -0.7128320000 0.0166880000
O -0.3087750000 1.4785130000 0.0073560000
C -2.2559110000 -0.3539840000 -0.0083260000
H -2.4805330000 0.2362870000 -0.8975200000
H -2.5156980000 0.2220380000 0.8805920000
H -2.7942800000 -1.2983270000 -0.0254620000
H 1.6705290000 -1.3249060000 0.8424570000
H 2.2980450000 0.6671660000 0.7714600000
