28
0 1
N -0.2344390000 2.3434410000 -0.5051090000
C -1.9416910000 0.6419700000 0.3039790000
C 1.7863650000 0.3938970000 -0.1084650000
C 1.1654240000 -0.4956810000 -0.9857960000
C 2.8679810000 -0.0397300000 0.6653410000
C 1.6191440000 -1.8084360000 -1.0813600000
C 2.7035510000 -2.2402460000 -0.3195440000
C 3.3276410000 -1.3489710000 0.5514940000
C -2.8056990000 0.2413650000 -0.7210950000
C -1.5827880000 -0.2922640000 1.2793370000
C -2.0634640000 -1.5982180000 1.2255420000
C -2.9135710000 -1.9888100000 0.1931110000
C -3.2859370000 -1.0644500000 -0.7814200000
H -3.9575480000 -1.3577330000 -1.5808100000
H -3.1141600000 0.9611390000 -1.4741040000
H -1.7730540000 -2.3111900000 1.9889840000
H -3.2896650000 -3.0048560000 0.1517560000
H -0.9158000000 0.0039410000 2.0819590000
H 0.3209130000 -0.1719040000 -1.5815720000
H 1.1225910000 -2.4950410000 -1.7581020000
H 3.0558450000 -3.2620500000 -0.4005590000
H 4.1674820000 -1.6752390000 1.1551640000
H 3.3458640000 0.6449550000 1.3585710000
S 1.3461560000 2.1354750000 0.0214970000
C -1.4038270000 2.0598470000 0.3399420000
H -1.1268510000 2.3310490000 1.3602730000
H -2.1925690000 2.7521730000 0.0249960000
H -0.3792420000 2.2514320000 -1.5011330000
