8
0 1
F -1.4989520000 0.8850730000 0.1182710000
N 0.8194640000 -0.3870040000 0.4231520000
S -0.6631150000 -0.5848790000 -0.1926600000
C 1.8514920000 0.4435240000 -0.2076210000
H 0.9124570000 -0.4932390000 1.4268820000
H 1.7573440000 0.3481980000 -1.2889100000
H 2.8379650000 0.0874770000 0.0985290000
H 1.7474440000 1.4978630000 0.0652810000
