16
0 1
C 2.7805100000 0.2572380000 -0.0000100000
C 1.7790650000 1.2261670000 0.0000030000
C 0.4557470000 0.8251960000 0.0000010000
C 2.4335400000 -1.0924810000 -0.0000070000
C 1.0962180000 -1.4782550000 -0.0000050000
C 0.0814090000 -0.5199720000 0.0000100000
H 3.8206910000 0.5586230000 0.0000170000
H 2.0033020000 2.2857190000 0.0000020000
F -0.5295190000 1.7634570000 0.0000020000
H 3.2063370000 -1.8519550000 -0.0000380000
H 0.8071280000 -2.5219950000 -0.0000100000
O -1.2123040000 -0.9298550000 0.0000460000
Si -2.6942090000 -0.1605480000 -0.0000110000
H -3.6532170000 -1.2815280000 -0.0000020000
H -2.8800390000 0.6595050000 -1.2141780000
H -2.8801050000 0.6596750000 1.2140250000
