13
0 1
C 2.2934940000 0.0037270000 -0.0000010000
C 1.5885130000 1.2049920000 -0.0000010000
C 0.1963770000 1.2093110000 -0.0000010000
C 1.5913720000 -1.1999170000 0.0000000000
C 0.2002250000 -1.2063600000 0.0000030000
C -0.5063100000 0.0009560000 0.0000010000
H 3.3769990000 0.0053310000 -0.0000020000
H 2.1216430000 2.1491760000 -0.0000020000
H -0.3383080000 2.1522470000 -0.0000040000
H 2.1269030000 -2.1426430000 0.0000010000
H -0.3366530000 -2.1484160000 0.0000070000
S -2.2887310000 -0.0832460000 -0.0000030000
H -2.5129120000 1.2399880000 0.0000540000
