15
0 1
S 1.8364540000 0.0207010000 0.0000000000
Si -0.3498820000 0.0051470000 -0.0000000000
C -0.9924720000 -0.8617420000 -1.5380130000
H -0.6275080000 -0.3743310000 -2.4456070000
H -2.0875620000 -0.8471630000 -1.5587120000
H -0.6735800000 -1.9076940000 -1.5679910000
C -0.8288180000 1.8201460000 -0.0000010000
H -1.9186660000 1.9237390000 -0.0000010000
H -0.4438260000 2.3340130000 -0.8849050000
H -0.4438260000 2.3340140000 0.8849020000
C -0.9924720000 -0.8617400000 1.5380140000
H -0.6735800000 -1.9076920000 1.5679930000
H -2.0875620000 -0.8471610000 1.5587130000
H -0.6275080000 -0.3743280000 2.4456070000
H 1.9812730000 -1.3166520000 0.0000010000
