15
0 1
Si -0.0056750000 0.0000000000 0.0344600000
O -0.1850970000 -0.0000050000 1.6922790000
H 0.6023380000 -0.0000070000 2.2401990000
C 0.9258370000 1.5320460000 -0.5268550000
H 0.4114090000 2.4445240000 -0.2114220000
H 1.0135940000 1.5583130000 -1.6180550000
H 1.9414430000 1.5618130000 -0.1184340000
C -1.7536430000 -0.0000100000 -0.6260060000
H -2.2987080000 0.8838920000 -0.2831820000
H -2.2986950000 -0.8839230000 -0.2831880000
H -1.7659880000 -0.0000070000 -1.7203290000
C 0.9258580000 -1.5320310000 -0.5268610000
H 1.9414640000 -1.5617860000 -0.1184400000
H 1.0136160000 -1.5582920000 -1.6180610000
H 0.4114420000 -2.4445180000 -0.2114320000
