21
0 1
S -2.1330420000 0.2148910000 0.0488580000
C -1.9353890000 0.2969270000 1.8409500000
O -3.4200910000 -0.4214960000 -0.2163070000
O -1.8576200000 1.5553090000 -0.4705440000
H -2.0957790000 -0.6943550000 2.2642860000
H -2.7039110000 0.9891890000 2.1899310000
H -0.9423620000 0.6809240000 2.0727960000
C 1.1653180000 -0.4319100000 -0.3301930000
C 1.5111930000 0.8927450000 -0.6522870000
C 2.1158410000 -1.2358740000 0.3206290000
C 2.7721920000 1.3899490000 -0.3377200000
C 3.3784740000 -0.7364930000 0.6319110000
C 3.7069910000 0.5762630000 0.3017780000
H 0.7860760000 1.5387580000 -1.1346830000
H 3.0255370000 2.4133640000 -0.5901440000
H 1.8720890000 -2.2600810000 0.5845200000
H 4.1028130000 -1.3701600000 1.1311300000
H 4.6892850000 0.9662880000 0.5439800000
Si -0.5095800000 -1.1229180000 -0.7588430000
H -0.8455070000 -1.0906950000 -2.1952900000
H -0.6914780000 -2.4707740000 -0.1800400000
