13
0 1
C 0.4927790000 2.1298440000 0.0000040000
C 1.5096720000 1.1772150000 0.0000030000
C 1.1869720000 -0.1760610000 0.0000000000
C -0.1440390000 -0.6083000000 -0.0000010000
C -1.1483580000 0.3725610000 0.0000000000
C -0.8415120000 1.7252190000 0.0000030000
O 0.7353530000 3.4673080000 0.0000060000
H 1.6849420000 3.6276710000 0.0000090000
H 2.5520260000 1.4720680000 0.0000030000
H -1.6272640000 2.4674190000 0.0000040000
Cl -2.8305630000 -0.0837430000 -0.0000010000
Cl -0.5389870000 -2.2979590000 -0.0000040000
Cl 2.4974540000 -1.3258560000 -0.0000010000
