14
0 1
C 2.3574490000 -0.0011590000 0.0047730000
C 1.5140010000 1.1008410000 -0.0010800000
C 0.1155540000 0.9529030000 -0.0071740000
C 1.8364540000 -1.2944720000 0.0043110000
C 0.4560330000 -1.4685030000 0.0005930000
C -0.3822990000 -0.3616790000 -0.0043740000
H 3.4305170000 0.1526580000 0.0093340000
H 1.9290840000 2.1035680000 -0.0080390000
H 0.0193900000 -2.4591950000 0.0038300000
N -0.7207410000 2.0539830000 -0.0717710000
H -1.6766790000 1.9014270000 0.2124770000
H -0.3307340000 2.9213550000 0.2626060000
Cl -2.1294540000 -0.6122540000 0.0018690000
H 2.4911800000 -2.1569650000 0.0081120000
