8
0 1
Si 1.3103880000 -0.5136010000 -0.2528680000
Si -0.8884920000 0.0879370000 0.3663350000
F -1.8538330000 -1.1178310000 -0.0725420000
F 2.3204380000 0.6199250000 0.3049680000
F -1.3456110000 1.3853850000 -0.4572070000
H 1.4508620000 -0.5850170000 -1.7222360000
H -1.1342720000 0.3609740000 1.7937010000
H 1.6879130000 -1.8039730000 0.3630230000
