12
0 2
S -1.8550930000 0.3633110000 -0.0000370000
C -0.3087200000 -0.4768160000 0.0000480000
O -0.4568790000 -1.6979740000 -0.0000310000
N 0.8794700000 0.1643530000 0.0000260000
C 1.0009770000 1.6102680000 0.0000220000
H 0.0102710000 2.0654610000 -0.0000010000
H 1.5389560000 1.9505970000 -0.8906760000
H 1.5389180000 1.9506050000 0.8907400000
C 2.1117600000 -0.6162520000 0.0000190000
H 1.8554840000 -1.6735180000 0.0000190000
H 2.7062560000 -0.3880070000 0.8902440000
H 2.7062490000 -0.3880040000 -0.8902110000
