15
0 1
C 1.0415290000 1.2180960000 -0.1868700000
C 2.4053800000 0.9629680000 -0.2559180000
C 2.8844550000 -0.3321230000 -0.0605210000
C 1.9943480000 -1.3703910000 0.2055360000
C 0.6260840000 -1.1216590000 0.2581290000
C 0.1388370000 0.1736150000 0.0537040000
H 0.6531680000 2.2200760000 -0.3185710000
H 3.0959700000 1.7737880000 -0.4570010000
H 2.3653140000 -2.3739550000 0.3781900000
H -0.0524320000 -1.9313600000 0.4952590000
H 3.9491810000 -0.5302750000 -0.1084120000
C -1.3087810000 0.5452800000 0.1333510000
O -1.6849990000 1.6557460000 0.4078160000
S -2.5885910000 -0.6989240000 -0.2150070000
H -1.8048490000 -1.6761710000 -0.6963370000
