10
0 1
Si 1.1244030000 -0.1121200000 0.0135700000
C -0.6068010000 0.6477370000 -0.0552580000
H 1.4091980000 -0.6523230000 1.3617160000
H 2.1473950000 0.9074330000 -0.3298800000
H 1.2178400000 -1.2172560000 -0.9737060000
N -1.6131340000 -0.4159530000 0.1097970000
H -1.6256630000 -1.0185530000 -0.7067200000
H -2.5451410000 -0.0225200000 0.1959080000
H -0.7215780000 1.2596720000 -0.9650510000
H -0.6909500000 1.3384670000 0.7907180000
