12
0 2
Si -1.2169010000 -0.4276760000 -0.5285030000
C 0.4506350000 0.4588650000 -0.5901640000
Si 1.9126260000 -0.4938400000 0.1828510000
O 0.2847940000 1.7525020000 0.0396620000
H 0.6914720000 0.6558640000 -1.6403860000
H -0.1497850000 1.5949560000 0.8873470000
O -1.6424680000 -0.2153250000 1.0632140000
H -2.5548110000 -0.3296330000 1.3357010000
H 2.0138810000 -1.8699530000 -0.3791440000
H 1.7457730000 -0.5682490000 1.6588310000
H -1.1185110000 -1.8614870000 -0.8910160000
H -2.2105860000 0.2291200000 -1.4142320000
