7
0 2
Si -1.6486880000 -0.4319250000 -0.0881400000
C 0.0244160000 0.4903980000 0.0045440000
H -1.5720290000 -1.8000390000 0.4752700000
H -2.7103510000 0.3957580000 0.5236210000
O 0.1013560000 1.6911050000 0.0139130000
S 1.5019620000 -0.5908040000 0.0078190000
H 2.3752660000 0.4328610000 -0.0286030000
