7
0 1
Cl -1.8803660000 0.3013490000 -0.0000220000
S -0.2153690000 -0.9693670000 0.0000190000
C 1.2489510000 0.1017340000 0.0000110000
O 2.2861740000 -0.5175950000 -0.0000130000
N 1.0802690000 1.4350320000 0.0000110000
H 0.1647630000 1.8536380000 0.0000220000
H 1.9023860000 2.0184290000 -0.0000030000
