12
0 1
Cl 2.2271330000 0.6245320000 0.0000630000
N -0.6361200000 -0.8029420000 -0.0000330000
C -1.2384830000 1.5878920000 -0.0000190000
C -1.5250300000 0.1090800000 -0.0000190000
C -2.9722240000 -0.3137430000 0.0000080000
S 0.9128000000 -1.1238430000 -0.0000400000
H -0.1736200000 1.8048250000 -0.0000180000
H -1.6965400000 2.0521830000 0.8798020000
H -1.6965380000 2.0521850000 -0.8798410000
H -3.0616350000 -1.3990770000 0.0000020000
H -3.4852530000 0.0877830000 -0.8804480000
H -3.4852200000 0.0877690000 0.8804900000
