16
0 1
C 0.6459040000 -1.7938640000 -0.0189990000
C 1.9501950000 -1.3283770000 0.0232160000
C 2.2250420000 0.0494650000 0.0455670000
C -0.4390130000 -0.9170400000 -0.0162270000
C -0.1649150000 0.4532080000 0.0129280000
C 1.1398420000 0.9315440000 0.0305740000
H 2.7681200000 -2.0405610000 0.0346210000
N 3.5251050000 0.5205830000 0.1375430000
H 4.2519450000 -0.1054690000 -0.1731190000
H 3.6779570000 1.4760390000 -0.1466280000
H 0.4521790000 -2.8579020000 -0.0590550000
N -1.2284800000 1.4836590000 0.0364410000
O -0.9967500000 2.5291770000 -0.5578850000
O -2.2442500000 1.2407950000 0.6647390000
Cl -2.0429950000 -1.5902590000 -0.1304710000
H 1.2899940000 2.0032100000 0.0271260000
