19
0 1
C -0.9745340000 0.1413050000 0.0216970000
N 1.8052890000 -0.3076070000 0.4957790000
O 2.4281310000 0.7110610000 -0.3187310000
C -2.1590690000 -0.4474340000 -0.7703690000
H -2.4164530000 -1.4541080000 -0.4280900000
H -1.9438930000 -0.4981290000 -1.8421430000
C -0.6530370000 1.5496420000 -0.5036270000
H -0.3399830000 1.5308410000 -1.5499910000
H 0.1438570000 2.0208320000 0.0738770000
H -1.5411610000 2.1882940000 -0.4240730000
H -3.0440140000 0.1846170000 -0.6412740000
C -1.3259260000 0.2059380000 1.5189780000
H -2.1595310000 0.8977490000 1.6822140000
H -0.4744490000 0.5560190000 2.1081680000
H -1.6210020000 -0.7741630000 1.9040660000
P 0.4276210000 -1.1011710000 -0.1852800000
H 2.3995990000 1.4889160000 0.2493690000
H 0.6583300000 -0.8743980000 -1.5708780000
H 2.5377100000 -0.9808560000 0.6972820000
