7
0 2
S -0.4154600000 0.1273660000 0.0913300000
O -0.8810450000 -0.9711110000 -1.0318290000
O -0.8259380000 1.4073690000 -0.4085760000
O -0.8522470000 -0.3763500000 1.3732160000
P 1.7676160000 0.0392760000 -0.0458170000
H -1.1552110000 -1.7713010000 -0.5583210000
H 1.7621760000 -1.3349530000 0.3218280000
