15
0 2
C -2.0454620000 -0.1011620000 0.0000150000
O -2.4537970000 -1.2414500000 0.0001350000
N -0.6815320000 0.1878960000 -0.0000630000
C 1.9101730000 0.3096950000 -0.0001560000
C -2.9456700000 1.1182370000 -0.0000920000
C 3.3316510000 -0.2113980000 -0.0001030000
O 1.6654560000 1.5059350000 0.0002870000
H -3.9826710000 0.7898700000 -0.0000400000
H -2.7575490000 1.7352810000 -0.8832440000
H -2.7575180000 1.7354560000 0.8829320000
H 3.3785480000 -1.3023250000 -0.0004000000
H 3.8519040000 0.1715640000 0.8820960000
H 3.8521520000 0.1720730000 -0.8819320000
P 0.5569390000 -0.9723270000 -0.0000100000
H -0.3656580000 1.1596050000 -0.0001920000
