27
0 2
P -0.0000010000 1.3770560000 0.0000210000
Si -1.8147720000 -0.0092000000 0.0014500000
C -3.2798530000 1.0528980000 -0.5300400000
H -3.4072150000 1.9119200000 0.1345740000
H -4.2071050000 0.4702130000 -0.5103270000
H -3.1458290000 1.4361770000 -1.5455530000
C -2.1236470000 -0.6409980000 1.7547670000
H -2.2183460000 0.1873360000 2.4621210000
H -1.3179680000 -1.2911680000 2.1036900000
H -3.0567970000 -1.2144100000 1.7842630000
C -1.6764040000 -1.4724030000 -1.1849120000
H -1.4860120000 -1.1392020000 -2.2088160000
H -2.6173490000 -2.0336670000 -1.1884550000
H -0.8789890000 -2.1633200000 -0.9007530000
Si 1.8147720000 -0.0091990000 -0.0014460000
C 3.2798780000 1.0529190000 0.5299390000
H 3.4072060000 1.9119190000 -0.1347100000
H 4.2071290000 0.4702340000 0.5101980000
H 3.1459030000 1.4362300000 1.5454450000
C 2.1235590000 -0.6410530000 -1.7547580000
H 2.2182220000 0.1872600000 -2.4621440000
H 1.3178630000 -1.2912350000 -2.1036190000
H 3.0567080000 -1.2144650000 -1.7842830000
C 1.6764690000 -1.4723660000 1.1849670000
H 1.4861260000 -1.1391350000 2.2088710000
H 2.6174150000 -2.0336270000 1.1884800000
H 0.8790420000 -2.1632950000 0.9008690000
