14
0 1
B 3.1634830000 -0.7150490000 0.8150490000
B 2.1969860000 -0.4830990000 -0.4837670000
C 0.8454280000 0.3258780000 -0.4348970000
O 0.7870800000 1.5118790000 -0.5826740000
O -0.2659890000 -0.5002610000 -0.2729450000
C -1.4833710000 -0.0263210000 0.2488670000
O -1.5509360000 0.8786630000 1.0177240000
C -2.6138790000 -0.8669280000 -0.2732680000
H -2.7115940000 -0.7110590000 -1.3507620000
H -3.5376390000 -0.5851820000 0.2277250000
H -2.4000860000 -1.9256570000 -0.1144230000
H 3.9831690000 0.0899030000 1.1386170000
H 3.0979010000 -1.7142440000 1.4665120000
H 2.5155910000 -0.8810480000 -1.5651280000
