16
0 1
Si -2.2429880000 0.2407100000 -0.2163390000
Si -0.2156840000 -0.8373390000 0.3400060000
H -2.4058190000 1.5293540000 0.5036460000
H -3.3759800000 -0.6391500000 0.1673440000
H -2.3285270000 0.5128160000 -1.6721820000
N 1.1635320000 0.1067690000 -0.1113790000
H -0.1146870000 -2.1152410000 -0.4074510000
H -0.2856270000 -1.1968060000 1.7904820000
C 1.2952330000 1.5080960000 0.2650360000
H 1.8859590000 1.6444670000 1.1844290000
H 0.3143430000 1.9598150000 0.4299840000
H 1.7905300000 2.0740170000 -0.5342350000
C 2.4431510000 -0.5231300000 -0.4145870000
H 2.2928180000 -1.5508130000 -0.7506730000
H 3.1201650000 -0.5439820000 0.4539670000
H 2.9532200000 0.0211620000 -1.2196880000
