7
0 2
Si 1.5613480000 -0.0337980000 0.0000000000
C -0.3702510000 -0.0273000000 -0.0000000000
F -0.8771130000 1.2328610000 -0.0000000000
F -0.8771130000 -0.6528150000 1.0903710000
F -0.8771130000 -0.6528150000 -1.0903710000
H 2.0223480000 0.6459450000 1.2314460000
H 2.0223480000 0.6459450000 -1.2314460000
