7
0 2
C 0.4826790000 -0.1498040000 -0.0000090000
O 0.9674530000 -1.2660100000 -0.0000320000
N 1.2301510000 0.9917140000 -0.0000110000
H 2.2359810000 0.9005790000 -0.0000190000
H 0.8203760000 1.9086500000 0.0000260000
P -1.3888630000 -0.0093800000 0.0000220000
H -1.4701640000 1.4163820000 0.0000610000
