10
0 1
F 0.1637310000 1.6656600000 1.2141210000
S -0.1489180000 -0.9549590000 -0.0000000000
O 0.1637310000 -1.5935840000 1.2663570000
P 0.9833290000 0.9944630000 0.0000000000
C -1.8855360000 -0.4819100000 -0.0000000000
H -2.4469970000 -1.4175730000 -0.0000000000
H -2.0869450000 0.0934510000 0.9020180000
F 0.1637310000 1.6656600000 -1.2141210000
O 0.1637310000 -1.5935840000 -1.2663570000
H -2.0869450000 0.0934510000 -0.9020180000
