16
0 1
C 0.6447370000 -0.4009950000 0.0000010000
O 1.7199430000 0.5174560000 -0.0000020000
C -0.6447370000 0.4009950000 -0.0000010000
C 2.9832230000 -0.1137110000 -0.0000010000
H 0.6765330000 -1.0485060000 0.8887780000
H 0.6765320000 -1.0485100000 -0.8887740000
H 3.1218790000 -0.7417160000 0.8921420000
H 3.7382320000 0.6731560000 -0.0000030000
H 3.1218790000 -0.7417200000 -0.8921420000
O -1.7199430000 -0.5174560000 0.0000020000
H -0.6765330000 1.0485060000 -0.8887780000
H -0.6765320000 1.0485100000 0.8887740000
C -2.9832230000 0.1137110000 0.0000010000
H -3.7382320000 -0.6731560000 0.0000030000
H -3.1218800000 0.7417160000 -0.8921420000
H -3.1218790000 0.7417190000 0.8921420000
