10
0 2
P 0.1376950000 1.3553370000 -0.0997850000
C -0.9842590000 -0.1429440000 0.0111910000
O -0.2780760000 -1.3124650000 0.0597920000
C 1.1309450000 -1.1667570000 -0.1836570000
C 1.5828690000 0.2410800000 0.2321330000
H 1.3140710000 -1.3344260000 -1.2491770000
H 1.6250540000 -1.9537280000 0.3857840000
O -2.1806050000 -0.1208020000 0.0654630000
H 2.4798090000 0.5568630000 -0.3043950000
H 1.8077540000 0.2791120000 1.3045190000
