13
0 2
S 2.2067020000 -0.2190170000 0.3112780000
C 0.5684150000 0.1863500000 -0.2225270000
O 0.4059380000 1.3572790000 -0.4903150000
C -0.4781790000 -0.8959820000 -0.3419620000
C -1.9116930000 -0.3680740000 -0.4892230000
H -0.3823030000 -1.5611300000 0.5237100000
H -0.1938990000 -1.4950050000 -1.2161760000
C -2.4584650000 0.2806170000 0.7858770000
H -2.5508060000 -1.2071470000 -0.7810470000
H -1.9408750000 0.3506990000 -1.3123870000
H -2.4538110000 -0.4249770000 1.6226850000
H -3.4886640000 0.6146710000 0.6401760000
H -1.8648470000 1.1514580000 1.0721350000
