17
0 1
H -2.7474690000 1.5099240000 0.0000050000
H -1.3491310000 3.0065730000 0.0000060000
B -1.6024320000 1.8397880000 -0.0000030000
C -0.4485790000 0.8259550000 -0.0000010000
C -0.6321300000 -0.5866770000 -0.0000000000
C 0.4894480000 -1.4162600000 0.0000010000
C 1.7818630000 -0.8910390000 0.0000010000
C 0.8727470000 1.3242090000 -0.0000010000
H 1.0157900000 2.3995770000 -0.0000020000
C 1.9812100000 0.4867340000 0.0000000000
H 2.9844240000 0.8973580000 0.0000000000
H 0.3550790000 -2.4930450000 0.0000020000
C -2.0070510000 -1.2137770000 -0.0000000000
H -2.5847960000 -0.9136180000 -0.8777180000
H -2.5847960000 -0.9136170000 0.8777170000
H -1.9349780000 -2.3030340000 0.0000000000
H 2.6329910000 -1.5639270000 0.0000020000
