12
0 1
C 0.7024700000 -1.2167120000 0.0000000000
C -0.6883680000 -1.1922910000 0.0000000000
C -1.4049340000 -0.0000000000 0.0000000000
C -0.6883680000 1.1922910000 0.0000000000
C 0.7024700000 1.2167120000 0.0000000000
C 1.3767350000 -0.0000000000 0.0000000000
H 1.2426480000 -2.1523150000 0.0000000000
Cl -1.5634200000 -2.7079080000 0.0000000000
Cl 3.1268360000 -0.0000000000 0.0000000000
Cl -1.5634190000 2.7079080000 0.0000000000
H -2.4852790000 0.0000000000 0.0000000000
H 1.2426490000 2.1523150000 0.0000000000
