15
0 1
F 1.4507380000 -1.3934330000 0.2857050000
S 1.8184510000 0.1080010000 -0.3733850000
C 0.5678460000 1.1181660000 0.4510280000
C -0.8710610000 0.9857970000 -0.0542080000
H 0.6489350000 0.9364500000 1.5266350000
C -1.5295330000 -0.3682100000 0.2356320000
H -0.8885250000 1.1816330000 -1.1318490000
H -1.4613990000 1.7823520000 0.4183020000
C -2.9826120000 -0.4286140000 -0.2419310000
H -1.4871390000 -0.5645020000 1.3136780000
H -0.9483080000 -1.1632540000 -0.2385070000
H -3.5954560000 0.3361130000 0.2458580000
H -3.4299870000 -1.4015660000 -0.0231970000
H -3.0510310000 -0.2682180000 -1.3223840000
H 0.9532220000 2.1310410000 0.2711530000
