14
0 1
O -0.6774220000 0.2416180000 -0.7726020000
O 0.6774140000 -0.2415680000 -0.7726150000
C 1.4340770000 0.4198590000 0.1571760000
C -1.4340570000 -0.4197840000 0.1572290000
O -1.0652360000 -1.2209440000 0.9453260000
O 1.0652690000 1.2209900000 0.9453080000
C 2.9020350000 -0.0607380000 -0.0245760000
C -2.9020390000 0.0607220000 -0.0245690000
F -3.6455410000 -0.4329150000 0.9594900000
F -3.3804140000 -0.3800390000 -1.1968190000
F -2.9783770000 1.3958190000 -0.0046180000
F 3.6455350000 0.4328440000 0.9595130000
F 3.3804760000 0.3800050000 -1.1968060000
F 2.9782890000 -1.3958400000 -0.0046360000
