9
0 1
H -2.3967220000 1.1426650000 -0.4335920000
H -2.2295770000 -0.7498620000 -1.2538850000
B -1.7621900000 0.1699680000 -0.6681700000
P -0.0310870000 -0.0235270000 0.0832870000
O -0.2151250000 -0.6915440000 1.3888060000
O 0.9942760000 -0.8111130000 -0.8951600000
H 0.9928420000 -1.7587730000 -0.7117880000
O 0.6359920000 1.4326080000 0.0428730000
H 1.5895670000 1.4294210000 0.1986510000
