10
0 1
Si 1.3732780000 -0.1717970000 -0.0000040000
C -0.5336040000 0.1995640000 0.0000640000
O -0.8494030000 1.3712970000 -0.0000160000
C -1.5634370000 -0.9105180000 -0.0000110000
H -1.4232260000 -1.5496970000 -0.8786730000
H -2.5704810000 -0.4901640000 -0.0000420000
H -1.4232970000 -1.5497380000 0.8786330000
H 1.9440690000 0.4564700000 1.2109240000
H 1.9440130000 0.4565570000 -1.2109140000
H 1.6804910000 -1.6229150000 -0.0000610000
