12
0 1
Cl 3.0432440000 -0.3070590000 -0.0000010000
Cl -1.7875670000 -2.4819450000 0.0000010000
Cl -1.2556980000 2.7890220000 0.0000020000
N 1.3403730000 -0.1352500000 -0.0000050000
N -0.7872910000 -1.0931640000 -0.0000040000
N -0.5530490000 1.2283990000 -0.0000040000
C 0.8545340000 1.1865030000 -0.0000030000
C 0.6002910000 -1.3333070000 0.0000000000
C -1.4548020000 0.1467860000 -0.0000020000
O 1.5517010000 2.1545470000 0.0000040000
O 1.0900310000 -2.4211070000 0.0000040000
O -2.6417350000 0.2665470000 0.0000040000
