15
0 1
Si 1.1408290000 -0.9329970000 -0.0000040000
C -0.7427810000 -0.6636410000 0.0000010000
Cl 2.4779660000 0.6992550000 -0.0000060000
N -1.5161930000 0.4461150000 0.0000030000
C -0.9962260000 1.8043060000 0.0000060000
O -1.1877310000 -1.8153130000 0.0000010000
H 0.0904240000 1.7968410000 0.0000040000
H -1.3427270000 2.3444650000 0.8873750000
H -1.3427310000 2.3444700000 -0.8873580000
C -2.9696450000 0.3033950000 0.0000070000
H -3.3957640000 0.7784220000 0.8892640000
H -3.2137490000 -0.7562180000 -0.0000030000
H -3.3957690000 0.7784390000 -0.8892380000
H 1.4351950000 -1.6882260000 -1.2254990000
H 1.4352020000 -1.6882280000 1.2254890000
