18
0 1
Si 1.6270300000 -0.4529370000 0.2059550000
O 0.0609430000 -0.0770280000 -0.1622580000
C -1.0627970000 -0.9372700000 0.0302820000
C -2.3283650000 -0.2360530000 -0.4461730000
H -0.9170780000 -1.8702260000 -0.5299660000
C 2.6778400000 1.0197480000 -0.2445670000
H 2.5927820000 1.2487520000 -1.3098800000
H 3.7303150000 0.8186530000 -0.0222700000
H 2.3739370000 1.9044090000 0.3207930000
C -2.6450410000 1.0421880000 0.3328880000
H -3.1589710000 -0.9469490000 -0.3622990000
H -2.2137710000 -0.0069430000 -1.5109200000
H -2.8061500000 0.8279370000 1.3944360000
H -3.5479770000 1.5242150000 -0.0506820000
H -1.8201970000 1.7528380000 0.2551450000
H -1.1533190000 -1.1965650000 1.0948540000
H 2.0524660000 -1.6597390000 -0.5529010000
H 1.7521740000 -0.7707200000 1.6538120000
