7
0 1
S -1.4781560000 -0.1354590000 -0.0915970000
O -0.0159990000 0.7071890000 0.0424090000
H -1.6802200000 -0.3616930000 1.2236840000
Si 1.4242330000 -0.1453590000 -0.0044580000
H 2.4685950000 0.8947110000 0.0686460000
H 1.5367670000 -0.9237780000 -1.2563310000
H 1.5140930000 -1.0643890000 1.1526910000
