10
0 1
F 1.5572710000 1.4716630000 -0.0437910000
O 0.8937930000 0.5837490000 0.8734340000
S 0.1018520000 -0.5872280000 -0.0316360000
O -0.4893430000 -1.3273290000 1.0362220000
O -0.9682190000 0.2776190000 -0.8063910000
C -2.0166800000 0.9337500000 -0.0325000000
H -2.6876510000 1.3436320000 -0.7825810000
H -1.5797710000 1.7294680000 0.5701010000
H -2.5286210000 0.2036100000 0.5921000000
O 0.9701490000 -1.1251050000 -1.0138060000
