25
0 2
C -1.1617140000 -0.0000000000 -0.0801790000
Si 0.7832280000 0.0000000000 0.0140800000
C 1.4675620000 1.5369630000 -0.8373430000
H 1.1728340000 1.5777240000 -1.8894220000
H 2.5616790000 1.5351770000 -0.7992910000
H 1.1258750000 2.4578750000 -0.3560150000
C 1.3574930000 -0.0000010000 1.8151430000
H 1.0088990000 0.8841500000 2.3563860000
H 2.4518380000 -0.0000000000 1.8590160000
H 1.0089010000 -0.8841520000 2.3563850000
C 1.4675620000 -1.5369620000 -0.8373440000
H 1.1728350000 -1.5777220000 -1.8894240000
H 1.1258740000 -2.4578740000 -0.3560180000
H 2.5616800000 -1.5351770000 -0.7992910000
C -1.7105140000 1.2633450000 0.6212090000
H -1.4138770000 1.3034020000 1.6732860000
H -2.8057500000 1.2682600000 0.5846710000
H -1.3623470000 2.1805370000 0.1381220000
C -1.5145770000 0.0000000000 -1.5216070000
H -1.5817260000 0.9271200000 -2.0790650000
H -1.5817260000 -0.9271200000 -2.0790650000
C -1.7105140000 -1.2633450000 0.6212090000
H -1.4138770000 -1.3034020000 1.6732860000
H -1.3623470000 -2.1805370000 0.1381220000
H -2.8057500000 -1.2682600000 0.5846710000
