13
0 1
C -0.5592340000 1.4145060000 0.0000000000
C -0.8336060000 0.0492020000 0.0000000000
C 0.1727120000 -0.9055390000 -0.0000000000
C 0.7728430000 1.8169440000 0.0000000000
C 1.8057780000 0.8834390000 -0.0000000000
C 1.5032770000 -0.4800530000 -0.0000000000
H 1.0098870000 2.8745330000 0.0000000000
H 2.8406450000 1.2112220000 -0.0000000000
O 2.4604960000 -1.4508830000 -0.0000000000
H 3.3315270000 -1.0406140000 -0.0000000000
H -0.0515290000 -1.9633640000 -0.0000000000
Cl -2.5070390000 -0.4871010000 0.0000000000
H -1.3654580000 2.1350140000 0.0000000000
