10
0 1
C 0.9906540000 1.6631390000 0.2347090000
S 0.9906540000 0.2891610000 -0.9922600000
F 2.2343550000 2.1693040000 0.2083210000
F 0.7209200000 1.2595750000 1.4778890000
F 0.1271430000 2.6334300000 -0.0786650000
S -0.9906540000 -0.2891610000 -0.9922600000
C -0.9906540000 -1.6631390000 0.2347090000
F -2.2343550000 -2.1693040000 0.2083210000
F -0.7209200000 -1.2595750000 1.4778890000
F -0.1271430000 -2.6334300000 -0.0786650000
