7
0 1
C 0.7826570000 0.0896470000 -0.0000000000
C -0.5836630000 0.5025370000 0.0000010000
N 1.8946120000 -0.2238090000 -0.0000010000
C -1.6049940000 -0.3559580000 0.0000000000
H -0.7509620000 1.5746350000 0.0000020000
H -1.4485000000 -1.4277360000 -0.0000010000
H -2.6268190000 0.0024110000 0.0000010000
