10
0 2
C 2.2461980000 0.0047260000 -0.0448500000
P -0.3504190000 0.0353700000 0.1099770000
O -0.6798420000 1.1314750000 -0.9944720000
O -1.3543000000 -1.1376730000 -0.2767230000
H -1.2766670000 1.8109050000 -0.6587270000
H -1.4425790000 -1.7857560000 0.4322410000
O -0.3668020000 0.4813320000 1.5023310000
O 1.0415740000 -0.5544380000 -0.4260980000
H 2.2753090000 0.5322870000 0.8986930000
H 3.0980090000 -0.4819040000 -0.4930760000
