10
0 1
Cl 2.6138320000 -1.1515980000 -0.0009550000
Cl 1.4188650000 1.6466580000 0.0049400000
B 1.1991250000 -0.1102170000 0.0080510000
P -1.5285450000 -0.1152500000 0.1134800000
O -1.8924330000 0.4684820000 1.3985740000
O -1.6802180000 0.8447830000 -1.1501950000
H -1.5835400000 1.7748030000 -0.9091790000
O -2.2633840000 -1.4344330000 -0.3574770000
H -3.1890480000 -1.4565020000 -0.0873570000
O -0.0203020000 -0.6856410000 0.0073900000
