27
0 1
C 3.2366130000 0.7605010000 0.0039550000
O 2.5464990000 1.6276240000 -0.4407640000
S 2.8001620000 -1.0262610000 -0.0779790000
S 0.9703130000 -0.9706040000 -1.0365090000
C -0.1561150000 -0.4146810000 0.3069120000
O 0.2131400000 -0.1806710000 1.4198300000
C 4.5375330000 0.9737080000 0.7449270000
H 5.0352880000 1.8550140000 0.3387720000
H 5.1973340000 0.1065730000 0.6885110000
H 4.3019740000 1.1606170000 1.7966660000
C -1.5803670000 -0.2576780000 -0.1978810000
C -2.5528530000 -1.0766060000 0.6770520000
C -4.0083970000 -0.8607680000 0.2407350000
H -2.4220320000 -0.7655610000 1.7185840000
H -2.2936550000 -2.1387630000 0.6276960000
C -4.3851390000 0.6271050000 0.2326010000
H -4.6756490000 -1.4185120000 0.9051780000
H -4.1522990000 -1.2771810000 -0.7645600000
C -3.4161080000 1.4450040000 -0.6320780000
H -4.3623870000 1.0106010000 1.2604970000
H -5.4113620000 0.7545330000 -0.1257490000
C -1.9590620000 1.2419360000 -0.1962790000
H -3.6668600000 2.5091370000 -0.5824160000
H -3.5265770000 1.1485200000 -1.6830230000
H -1.2789160000 1.7970540000 -0.8487390000
H -1.8141870000 1.6296350000 0.8177400000
H -1.6320270000 -0.6285860000 -1.2295350000
