11
0 2
Si 1.8351990000 0.0694060000 -0.0983050000
N 0.2610920000 -0.6871790000 0.0395720000
H 1.8878800000 1.2659280000 0.7823500000
H 2.8001310000 -0.9676690000 0.3469980000
C -1.0287590000 -0.1600140000 0.0059250000
O -2.0007800000 -0.8863480000 0.0102460000
H 0.2210690000 -1.7017470000 0.0276740000
C -1.1299750000 1.3519210000 -0.0183540000
H -0.7281650000 1.7798540000 0.9041240000
H -2.1781060000 1.6261770000 -0.1152180000
H -0.5646010000 1.7753740000 -0.8540580000
