11
0 1
P -1.4664950000 -0.0957780000 -0.0136590000
C 0.2835540000 0.0353470000 0.5556360000
C 1.3778780000 0.7521870000 -0.1965420000
C 1.3680970000 -0.7543030000 -0.1459830000
H 0.3566100000 0.0570490000 1.6389620000
H 1.1046030000 -1.2908220000 -1.0504760000
H 2.1083090000 -1.2558110000 0.4660870000
H 2.1294370000 1.2773870000 0.3823430000
H 1.1191490000 1.2322300000 -1.1328990000
H -1.1918740000 -0.0675250000 -1.4068200000
H -1.8059870000 1.2847820000 0.0290280000
