15
0 1
Si 0.3207650000 -1.0680610000 -0.1865360000
B -1.3255080000 0.1283090000 -0.0434150000
O -2.4777530000 -0.1961110000 0.6250420000
O -1.2802780000 1.3415220000 -0.6634160000
C 1.9201340000 -0.0828530000 -0.4130150000
C 2.2039090000 0.9276400000 0.7115830000
H 2.2863590000 0.4337520000 1.6846340000
H 1.4059550000 1.6717380000 0.7825360000
H 3.1405220000 1.4659570000 0.5382240000
H 1.8510220000 0.4393280000 -1.3738660000
H 2.7520330000 -0.7894680000 -0.5086470000
H -2.4438420000 -1.0501950000 1.0630160000
H -2.1025660000 1.8374990000 -0.5530530000
H 0.1521380000 -2.0123700000 -1.3263870000
H 0.4152030000 -1.9169550000 1.0376990000
