29
0 1
O 2.8210360000 -0.9338300000 0.5276420000
C 3.2387930000 -1.7820400000 -0.5516150000
H 3.5854240000 -1.1766540000 -1.3894360000
H 4.0549620000 -2.3845600000 -0.1625720000
H 2.4131880000 -2.4228020000 -0.8619310000
P 1.6477790000 0.1029110000 0.3789470000
O 1.3740170000 0.9060640000 1.5828420000
O 2.0308070000 0.9612500000 -0.9155920000
O 0.4256100000 -0.8261460000 -0.1027270000
C -0.7035770000 -0.2399070000 -0.7779520000
C -1.4934490000 0.7334430000 0.1262900000
O -2.8500520000 0.3478810000 0.0144020000
C -2.8848070000 -1.0702930000 -0.1726290000
C -1.7152450000 -1.3294600000 -1.1283450000
H -2.0416420000 -1.2111920000 -2.1618360000
H -1.2712870000 -2.3178450000 -1.0161420000
H -0.3266070000 0.2615710000 -1.6710040000
H 1.4784190000 1.7683180000 -0.9515420000
C -1.3719960000 2.1958490000 -0.2667980000
H -1.1400900000 0.6059850000 1.1557200000
O -0.0257330000 2.6512420000 -0.1661950000
H -2.0330500000 2.7997750000 0.3596570000
H -1.6727000000 2.3303110000 -1.3066500000
H 0.2921450000 2.5043240000 0.7390510000
C -2.7677000000 -1.8146940000 1.1477520000
H -3.8479350000 -1.2851570000 -0.6364540000
H -2.8892150000 -2.8879410000 0.9842970000
H -3.5431130000 -1.4803030000 1.8383100000
H -1.7927610000 -1.6565790000 1.6131510000
