10
0 1
C 0.0455430000 -0.3858090000 1.2616700000
C 0.0455430000 -1.6111620000 0.7318600000
C 0.0455430000 -0.3858090000 -1.2616700000
C 0.0455430000 -1.6111620000 -0.7318600000
S 0.2863370000 0.8490400000 0.0000000000
O -0.7350890000 1.9505490000 0.0000000000
H 0.0546930000 -0.0887290000 -2.2989220000
H 0.0484510000 -2.5239630000 -1.3132680000
H 0.0546930000 -0.0887290000 2.2989220000
H 0.0484510000 -2.5239630000 1.3132680000
