27
0 2
C 1.0745150000 2.3320300000 0.0621770000
C 1.0536860000 0.8556130000 -0.1464320000
O 0.0856870000 0.1694060000 0.5437200000
C 2.3155550000 0.1248270000 -0.3367540000
Si -1.4646490000 -0.1969780000 0.0140170000
C -2.2543070000 -1.0543310000 1.4662050000
H -1.6846030000 -1.9420230000 1.7496590000
H -3.2743090000 -1.3698570000 1.2318030000
H -2.2972660000 -0.3930480000 2.3343220000
C -1.3619900000 -1.3174560000 -1.4785190000
H -0.7508530000 -0.8640090000 -2.2625900000
H -2.3553890000 -1.5048610000 -1.8950460000
H -0.9193450000 -2.2834630000 -1.2259850000
C -2.3864720000 1.3669350000 -0.4360630000
H -2.4231600000 2.0650800000 0.4032910000
H -3.4163240000 1.1331710000 -0.7201040000
H -1.9204020000 1.8769900000 -1.2823250000
H 1.8022710000 2.8068640000 -0.5980590000
H 0.0966890000 2.7796670000 -0.1246950000
H 1.3516980000 2.5770730000 1.0988520000
C 2.3436470000 -1.3724810000 -0.4745700000
H 3.0552470000 0.6718280000 -0.9095840000
C 2.8683070000 -0.7501020000 0.7809570000
H 3.0500220000 -1.7987750000 -1.1753090000
H 1.3958400000 -1.8890570000 -0.4122540000
H 3.9371050000 -0.7395230000 0.9519490000
H 2.2547140000 -0.8338240000 1.6680640000
