51
0 1
C 0.6950590000 -2.8295180000 1.0496880000
N 1.6564780000 -2.0805770000 0.2596800000
C -0.6204550000 -2.0914400000 1.1800800000
C 0.3445720000 -0.0690650000 0.0755080000
H 0.4975680000 0.1735240000 -0.9785210000
H 0.1234420000 0.8727690000 0.5841270000
C -1.9728270000 -0.8464760000 -0.4928980000
C -1.4777950000 -2.3743120000 2.1567590000
C -3.0664560000 -1.8210450000 -0.5042030000
C -4.3059150000 -1.6166390000 -0.9483550000
C -0.8296130000 -1.0030950000 0.2047400000
C -5.3731630000 -2.6627230000 -0.9644450000
H -5.0154860000 -3.6095400000 -0.5558100000
H -6.2429270000 -2.3447880000 -0.3816100000
H -5.7284180000 -2.8440940000 -1.9833620000
H 1.0872300000 -3.0442940000 2.0593020000
C 1.6337620000 -0.6734410000 0.6449100000
H 0.5219600000 -3.7905580000 0.5548760000
S -2.1745130000 0.5734430000 -1.5675940000
C 2.9706270000 -2.6888530000 0.2909130000
C 2.8430560000 0.0998730000 0.1645460000
H 1.6117150000 -0.5930410000 1.7481900000
C 3.8975110000 -0.5232710000 -0.4996750000
C 3.8693840000 -2.0113570000 -0.7254440000
H 4.8827430000 -2.4157750000 -0.6630480000
H 3.4924090000 -2.2284700000 -1.7295270000
H 2.8603480000 -3.7500130000 0.0549230000
H 3.4221470000 -2.6242260000 1.2982180000
C 2.9018510000 1.4740640000 0.3975770000
C 4.9789110000 0.2425980000 -0.9321870000
C 5.0240790000 1.6077700000 -0.7113360000
C 3.9786830000 2.2267800000 -0.0364850000
H 4.0052130000 3.2930220000 0.1532520000
H 2.0908270000 1.9622540000 0.9258110000
H 5.7990040000 -0.2488860000 -1.4450350000
H 5.8731910000 2.1867270000 -1.0540520000
C -2.0220010000 1.9355340000 -0.4284670000
C -2.6013100000 1.8999000000 0.8369780000
C -1.3325820000 3.0711640000 -0.8397260000
C -1.2261950000 4.1652850000 0.0086350000
C -1.7888620000 4.1250200000 1.2759730000
C -2.4732930000 2.9870770000 1.6868090000
H -0.8648170000 3.0894560000 -1.8166140000
H -0.6863740000 5.0454260000 -0.3197050000
H -3.1413250000 1.0171890000 1.1556530000
H -1.6953490000 4.9742130000 1.9416420000
H -2.9192260000 2.9489480000 2.6735960000
H -2.4154160000 -1.8435350000 2.2568230000
H -1.2595220000 -3.1429320000 2.8902610000
H -4.5742160000 -0.6359410000 -1.3288400000
H -2.8100050000 -2.8014570000 -0.1161850000
