55
0 2
C 0.9976670000 -0.2036410000 -1.5667730000
C 2.3709220000 -0.2767440000 -1.0147860000
F 2.6398170000 -1.4770580000 -0.4014320000
Si -0.3037910000 0.0119110000 -0.1470470000
Si 0.0283320000 2.1200060000 0.8391690000
Si -0.1186390000 -1.6530940000 1.5032880000
Si -2.4621500000 -0.0397370000 -1.0824380000
C -0.5672300000 3.4871450000 -0.3179130000
H -0.3647090000 4.4717300000 0.1133880000
H -0.0627830000 3.4412310000 -1.2864710000
H -1.6419190000 3.4208900000 -0.5011930000
C -0.9382430000 2.2360920000 2.4536240000
H -0.8376500000 3.2355580000 2.8863210000
H -2.0026530000 2.0428810000 2.3061460000
H -0.5690630000 1.5193500000 3.1905940000
C 1.8493360000 2.4263270000 1.2129120000
H 1.9735560000 3.3759790000 1.7418900000
H 2.2706360000 1.6346690000 1.8355100000
H 2.4405050000 2.4750500000 0.2963990000
C -1.7026540000 -1.6378880000 2.5307100000
H -2.5752690000 -1.9103500000 1.9327960000
H -1.6276430000 -2.3584830000 3.3502560000
H -1.8929000000 -0.6562220000 2.9699370000
C 0.0847130000 -3.3650840000 0.7473230000
H 1.0298390000 -3.4382790000 0.2067040000
H 0.0844570000 -4.1287260000 1.5306320000
H -0.7258390000 -3.5997270000 0.0535770000
C 1.3337210000 -1.3086820000 2.6510750000
H 2.2712700000 -1.2837310000 2.0933640000
H 1.2193120000 -0.3536580000 3.1691210000
H 1.4133140000 -2.0903060000 3.4122470000
C -3.0231860000 -1.8066770000 -1.4297860000
H -3.0730370000 -2.3952250000 -0.5108700000
H -4.0200730000 -1.8109430000 -1.8800790000
H -2.3462200000 -2.3217070000 -2.1144810000
C -3.6999220000 0.7446870000 0.1043410000
H -4.7116990000 0.6805050000 -0.3062210000
H -3.7028550000 0.2431890000 1.0743620000
H -3.4802250000 1.8007200000 0.2756770000
C -2.4928190000 0.9353070000 -2.6975770000
H -3.4976470000 0.9296990000 -3.1297870000
H -2.2057590000 1.9769760000 -2.5377500000
H -1.8122920000 0.5152060000 -3.4416540000
C 0.6872070000 -1.3873840000 -2.5049160000
H 1.4395780000 -1.4715170000 -3.2941800000
H 0.6716580000 -2.3300200000 -1.9578170000
H -0.2839760000 -1.2620810000 -2.9849860000
C 3.5814690000 0.3433300000 -1.6125290000
C 4.7698320000 0.4193510000 -0.6557630000
H 3.3057440000 1.3428950000 -1.9593470000
H 3.8764590000 -0.2204090000 -2.5132550000
H 5.6336880000 0.8684780000 -1.1489120000
H 4.5255310000 1.0197920000 0.2222610000
H 5.0545390000 -0.5758790000 -0.3131230000
H 0.9483780000 0.7219440000 -2.1494160000
