45
0 1
C -4.4002930000 -2.6154280000 -0.0473190000
C -3.3500740000 -1.8702610000 0.4667910000
C -3.3990880000 -0.4793360000 0.4451290000
C -4.5161320000 0.1509960000 -0.0914170000
C -5.5675820000 -0.5939440000 -0.6073730000
C -5.5107780000 -1.9798860000 -0.5874220000
H -4.3534490000 -3.6973560000 -0.0220930000
H -2.4927930000 -2.3741230000 0.8969190000
H -4.5655800000 1.2344060000 -0.1038930000
H -6.4335660000 -0.0904510000 -1.0197840000
H -6.3311330000 -2.5639540000 -0.9862830000
C -2.2369560000 0.3455910000 0.9355690000
C -1.0384690000 0.3479640000 -0.0478090000
C -1.0255590000 2.3384960000 -1.4312700000
C -0.0569720000 2.4383010000 0.7912140000
C -0.1044740000 3.4458590000 -1.9263740000
H -1.9834900000 2.7809080000 -1.1026930000
H -1.2535990000 1.6429680000 -2.2420010000
C 0.9066060000 3.5384590000 0.3670660000
H -0.9613910000 2.9004650000 1.2232940000
H 0.3930770000 1.8242330000 1.5710740000
C 0.3181930000 4.3585430000 -0.7778010000
H -0.6106060000 4.0172550000 -2.7085630000
H 0.7804900000 2.9863810000 -2.3767100000
H 1.1293830000 4.1756700000 1.2261730000
H 1.8469110000 3.0780570000 0.0487470000
H 1.0367060000 5.1039940000 -1.1262610000
H -0.5563690000 4.9102530000 -0.4131360000
N -0.3901230000 1.5944870000 -0.3516240000
N -0.1496140000 -0.5424030000 0.7047400000
N -0.5613720000 -0.6871930000 2.0074790000
N -1.6857630000 -0.2131730000 2.1934790000
C 1.1836220000 -0.7734120000 0.3681520000
C 1.4863490000 -1.3316590000 -0.8696190000
C 2.2525010000 -0.4396880000 1.1949050000
C 2.7878740000 -1.5527920000 -1.2735570000
C 3.5601510000 -0.6851650000 0.8153420000
C 3.8320700000 -1.2374120000 -0.4225900000
F 0.4948440000 -1.6619290000 -1.6997470000
F 3.0392910000 -2.0845400000 -2.4664250000
F 5.0877640000 -1.4600550000 -0.7946880000
F 4.5611680000 -0.3592560000 1.6280250000
F 2.0431420000 0.1587020000 2.3653590000
H -2.5791380000 1.3589700000 1.1455160000
H -1.3191750000 -0.1173570000 -0.9912460000
