28
0 2
N -0.3190810000 -0.3751760000 -0.4878950000
S 0.9737480000 -1.4147940000 -0.5625970000
O 1.5675740000 -1.4206150000 0.9455780000
C 2.4351030000 -0.3398800000 1.3626120000
C 1.6446710000 0.8874530000 1.7928960000
H 2.9797210000 -0.7590340000 2.2060090000
H 3.1382820000 -0.1253100000 0.5580420000
C 0.9145780000 1.6145120000 0.6840240000
H 2.3553700000 1.5816010000 2.2593470000
H 0.9447520000 0.5906120000 2.5782410000
C 1.7403490000 2.3079110000 -0.3736810000
H 0.1021140000 2.2395600000 1.0608610000
C -1.3888570000 -0.7973320000 0.3952170000
H -1.6668600000 -1.8284390000 0.1639680000
C -2.6006920000 0.0745020000 0.1647810000
F -3.0672340000 -0.0113390000 -1.0815040000
F -3.5880610000 -0.2881770000 1.0008920000
F -2.3303290000 1.3725090000 0.4062240000
O 1.9513960000 -0.8028540000 -1.4245300000
O 0.4757130000 -2.7459140000 -0.7708250000
C 0.8885240000 2.8890490000 -1.4964810000
H 2.3088740000 3.1080150000 0.1202310000
H 2.4732310000 1.6153420000 -0.7930180000
H 0.3548920000 2.0963410000 -2.0238820000
H 1.5077240000 3.4173990000 -2.2226910000
H 0.1487220000 3.5936270000 -1.1082890000
H 0.2473080000 0.7589610000 0.0519530000
H -1.1294270000 -0.7449150000 1.4575430000
