52
0 1
C 1.7109660000 -2.7927000000 -0.7585950000
C 0.8343570000 -2.1044530000 0.3145620000
C 2.8277100000 0.2139550000 -0.1357700000
H 1.0772830000 -3.4247840000 -1.3907190000
C 1.4925240000 -2.1688410000 1.7056320000
H 0.8432630000 -1.6611960000 2.4274860000
H 1.5473660000 -3.2167620000 2.0243810000
H 3.4205660000 1.1191750000 -0.2974960000
H -0.0778530000 -2.7071040000 0.4150370000
H -0.2663020000 -0.2148140000 0.9687000000
C 2.8948060000 -1.5797720000 1.7959010000
H 3.2337860000 -1.6563780000 2.8339760000
H 3.5864670000 -2.2013360000 1.2204050000
C 3.0425880000 -0.1232590000 1.3581140000
H 2.3788050000 0.4996160000 1.9651940000
H 4.0606000000 0.1863460000 1.6169950000
C 3.4420570000 -0.8358380000 -1.0941910000
H 3.8840380000 -0.2953700000 -1.9375010000
C 2.4988380000 -1.8793850000 -1.7018410000
H 1.7900540000 -1.3598390000 -2.3533830000
H 3.0918510000 -2.5118210000 -2.3709640000
H 4.2803530000 -1.3358120000 -0.5990250000
H 2.4000350000 -3.4903240000 -0.2690460000
C 1.3659780000 0.5652000000 -0.5218200000
H 1.3684230000 0.6134920000 -1.6180710000
Si 0.8528840000 2.3216110000 -0.0527500000
C 0.4664980000 2.5592530000 1.7751710000
H 1.3614050000 2.4750540000 2.3952780000
H 0.0462280000 3.5551580000 1.9412430000
H -0.2592580000 1.8288460000 2.1388070000
C -0.6877040000 2.7877010000 -1.0379530000
H -0.9595430000 3.8290940000 -0.8455460000
H -0.5155550000 2.6925380000 -2.1139030000
H -1.5543100000 2.1754770000 -0.7807920000
C 2.2065700000 3.5446370000 -0.5238490000
H 2.5097180000 3.4220630000 -1.5673430000
H 1.8557880000 4.5728710000 -0.4007080000
H 3.0986540000 3.4269750000 0.0956930000
B 0.3503790000 -0.5978160000 -0.0060670000
C -1.5970810000 -0.5562740000 -0.4027870000
C -2.5905360000 -0.3546810000 0.4224750000
H -2.4450630000 -0.1120760000 1.4642330000
C -0.8752710000 -0.8237310000 -1.4860140000
H -0.6760750000 -0.0360420000 -2.2005220000
H -0.7282630000 -1.8462400000 -1.8077490000
C -3.9809050000 -0.4547370000 -0.0888060000
O -4.3028170000 -0.7160790000 -1.2165640000
O -4.8499380000 -0.2062430000 0.9000800000
C -6.2343990000 -0.2674660000 0.5395600000
H -6.4857520000 -1.2623930000 0.1731300000
H -6.7832750000 -0.0427490000 1.4496710000
H -6.4556420000 0.4657910000 -0.2354880000
