28
0 1
N 0.8392110000 0.9757240000 -0.1918240000
C 2.1746490000 0.6274460000 0.0793780000
C 2.3448400000 -0.7113930000 0.0631400000
S 0.8274540000 -1.4988530000 -0.2895940000
C -0.0068940000 -0.0210150000 -0.4227020000
C 3.1855280000 1.6915680000 0.3458720000
H 3.2184820000 2.4240340000 -0.4636750000
H 4.1776080000 1.2549400000 0.4387320000
H 2.9713040000 2.2279660000 1.2736610000
C 3.5851660000 -1.5057820000 0.3110570000
H 4.4452740000 -0.8560560000 0.4692170000
H 3.8104240000 -2.1579350000 -0.5351420000
H 3.4771470000 -2.1371800000 1.1956130000
C 0.3864930000 2.3652200000 -0.2344710000
H 0.8370050000 2.9270160000 0.5815260000
H -0.6920640000 2.3663210000 -0.1036180000
H 0.6576380000 2.8247520000 -1.1858560000
C -1.9550280000 -0.3716320000 -0.6832830000
O -2.0286060000 -1.5949660000 -0.6075800000
C -2.2151500000 0.3594510000 -1.9852670000
H -1.6383950000 -0.1113840000 -2.7810640000
H -1.9665330000 1.4199210000 -1.9251530000
H -3.2781130000 0.2583970000 -2.2161960000
S -2.6559290000 0.6544750000 0.7408250000
C -2.3922140000 -0.5409870000 2.0692250000
H -2.4644720000 -1.5348140000 1.6255590000
H -3.1739950000 -0.4104520000 2.8152240000
H -1.4156800000 -0.4130870000 2.5371840000
