17
0 2
C -0.2862740000 0.5693420000 0.0000000000
C 0.1817870000 -0.0002690000 1.2940310000
Cl -0.6941420000 2.2605090000 0.0000000000
C 0.1817870000 -0.0002690000 -1.2940310000
C 0.1817870000 -1.5323000000 1.2574450000
C 0.8662840000 -2.0629400000 0.0000000000
C 0.1817870000 -1.5323000000 -1.2574450000
H -0.4359150000 0.3704450000 2.1148440000
H 1.2061430000 0.3561010000 1.4945730000
H 1.2061430000 0.3561010000 -1.4945730000
H -0.4359150000 0.3704450000 -2.1148440000
H -0.8521010000 -1.8915940000 1.2813470000
H 0.6724180000 -1.9164720000 2.1548680000
H 0.8567380000 -3.1557030000 0.0000000000
H 1.9196450000 -1.7574980000 0.0000000000
H -0.8521010000 -1.8915940000 -1.2813470000
H 0.6724180000 -1.9164720000 -2.1548680000
