37
0 1
C -0.5695580000 -0.9615190000 0.9164530000
H 0.1955400000 -1.4993770000 1.4897160000
B 0.0325600000 -0.0630960000 -0.2364160000
C -1.3263390000 -0.0585120000 1.9083810000
H -0.5806970000 0.5499490000 2.4327720000
H -1.8173900000 -0.6673490000 2.6762270000
C -1.4458430000 -2.0252850000 0.2133010000
H -0.7748730000 -2.7004620000 -0.3309270000
C 1.5377130000 3.4626840000 -0.0635510000
H 1.6247100000 3.7054140000 0.9898060000
H 1.4464260000 4.2887150000 -0.7563980000
C 1.5412310000 2.2046360000 -0.4936260000
C 1.6839920000 1.0359970000 0.3783680000
H 1.4510100000 2.0043290000 -1.5553580000
H -1.9608180000 -2.6430930000 0.9578790000
H 2.0246490000 1.2261220000 1.3907660000
C 1.9771130000 -0.2243560000 -0.1273930000
O 1.1713410000 -0.6795480000 -1.0501020000
O 2.8319620000 -1.0364010000 0.4550540000
C 2.7863060000 -2.4290340000 0.0980790000
H 1.7858540000 -2.8283590000 0.2548560000
H 3.0767170000 -2.5604540000 -0.9427490000
H 3.5010860000 -2.9139920000 0.7565070000
C -2.4755320000 -1.4656950000 -0.7816170000
H -2.8457280000 -2.2872260000 -1.4024930000
H -3.3463640000 -1.0965970000 -0.2409510000
C -1.0915320000 0.7330770000 -0.9931870000
H -0.7047260000 1.3903200000 -1.7757190000
C -1.9308750000 -0.3606100000 -1.6998510000
H -1.2974400000 -0.8215680000 -2.4662290000
H -2.7658140000 0.1045810000 -2.2357120000
C -1.8760170000 1.6018570000 0.0076880000
H -2.7351510000 2.0644070000 -0.4915440000
H -1.2200310000 2.4250420000 0.3068370000
C -2.3633690000 0.8788440000 1.2731380000
H -2.6564140000 1.6295530000 2.0134670000
H -3.2735060000 0.3206130000 1.0546230000
