26
0 1
O 2.9786350000 1.4471670000 0.5926670000
C 2.7300100000 0.3891240000 0.1388820000
C 1.3857760000 -0.1916530000 -0.1837860000
C 0.2410230000 0.7642440000 0.1237160000
H 1.3068880000 -1.1297420000 0.3706760000
H 1.4016870000 -0.4747220000 -1.2407780000
H 0.2350430000 0.9927680000 1.1940050000
C -1.1291680000 0.2284350000 -0.2917830000
H 0.4272660000 1.7127840000 -0.3866830000
C -1.5327670000 -1.0307590000 0.4823780000
H -1.0845780000 -0.0327580000 -1.3589540000
C -2.1965100000 1.3140330000 -0.1254700000
H -2.2097460000 1.6357600000 0.9236610000
C -3.5882320000 0.8244640000 -0.5199330000
H -1.9226230000 2.1931360000 -0.7162450000
C -3.9764740000 -0.4306060000 0.2586410000
H -3.6013860000 0.6014120000 -1.5934170000
H -4.3239440000 1.6165430000 -0.3577340000
C -2.9251010000 -1.5251880000 0.0915890000
H -4.9557560000 -0.7923020000 -0.0657690000
H -4.0710050000 -0.1804810000 1.3220470000
H -2.9090560000 -1.8523610000 -0.9548370000
H -3.1900790000 -2.4025850000 0.6873650000
H -1.5165440000 -0.8013140000 1.5557860000
H -0.8055550000 -1.8315830000 0.3235360000
Cl 4.0787630000 -0.7579090000 -0.2523180000
