52
0 1
C 1.6737180000 1.8262260000 0.0765220000
C 0.9387610000 0.8547420000 1.0332780000
C -1.3798890000 1.4499210000 -0.9249010000
H 2.7309400000 1.5498700000 0.0511340000
C -0.0383070000 1.5903180000 1.9803830000
H -0.6679720000 0.8595060000 2.4994930000
H 0.5586770000 2.0758560000 2.7603020000
H -2.2151280000 1.4639330000 -1.6301290000
H 1.7016080000 0.4387290000 1.6876420000
C -0.9194430000 2.6657650000 1.3540040000
H -1.4757980000 3.1624770000 2.1553960000
H -0.2843810000 3.4428950000 0.9206700000
C -1.9219680000 2.1990020000 0.3058000000
H -2.6830260000 1.5874960000 0.7953130000
H -2.4502510000 3.0861450000 -0.0608910000
C -0.2613200000 2.2424960000 -1.6414700000
H -0.4149280000 2.1433170000 -2.7208390000
C 1.1930030000 1.8549230000 -1.3735400000
H 1.3779000000 0.8730470000 -1.8150020000
H 1.8309490000 2.5465240000 -1.9336520000
H -0.4027050000 3.3071410000 -1.4244780000
H 1.6556700000 2.8381380000 0.4927970000
C -1.0668300000 -0.0555680000 -0.6785230000
H -0.8397300000 -0.4736600000 -1.6720310000
Si -2.6809250000 -0.9850330000 -0.2489100000
C -3.2361760000 -0.8611050000 1.5535650000
H -2.4025800000 -0.8104200000 2.2550990000
H -3.8591000000 0.0185760000 1.7252570000
H -3.8362270000 -1.7374580000 1.8149070000
C -2.5429980000 -2.8296720000 -0.6457630000
H -3.5501810000 -3.2557850000 -0.6557360000
H -2.1085020000 -3.0140360000 -1.6321180000
H -1.9715030000 -3.3965930000 0.0922470000
C -4.0846920000 -0.3383370000 -1.3248760000
H -3.8356590000 -0.3923710000 -2.3881460000
H -4.9823140000 -0.9421970000 -1.1654740000
H -4.3412150000 0.6977210000 -1.0953980000
B 0.2059180000 -0.3558970000 0.2644250000
C 1.6433330000 -1.3970090000 -0.5714710000
H 1.6290880000 -1.4626050000 -1.6508110000
C 0.6366930000 -2.0787450000 0.1188380000
H -0.0922240000 -2.5826300000 -0.5004030000
C 0.2545900000 -1.7654410000 1.4239680000
H 0.9910390000 -1.4917690000 2.1636920000
H -0.6640110000 -2.2038030000 1.7887200000
C 2.9621650000 -1.0995410000 0.0033510000
O 3.2921470000 -1.2085290000 1.1593000000
O 3.8123230000 -0.6971940000 -0.9607530000
C 5.1312460000 -0.3683660000 -0.5232910000
H 5.6748420000 -0.0809570000 -1.4193820000
H 5.1007110000 0.4585650000 0.1871610000
H 5.6022900000 -1.2275840000 -0.0463460000
