58
0 2
Si 0.5935410000 0.0737660000 0.0095900000
Si 1.6845000000 -1.3819400000 -1.4686670000
Si 1.2595690000 -0.2795220000 2.2258140000
Si 0.8956630000 2.3033060000 -0.6490170000
C 0.6479630000 2.4714290000 -2.5107430000
H 0.7687310000 3.5125890000 -2.8234600000
H 1.3738180000 1.8725070000 -3.0653010000
H -0.3496700000 2.1465420000 -2.8153350000
C -0.3004750000 3.4727930000 0.2215250000
H -0.2385320000 3.3773400000 1.3076240000
H -0.0636130000 4.5094650000 -0.0353900000
H -1.3363800000 3.2898170000 -0.0697110000
C 2.6499380000 2.8465040000 -0.2204430000
H 3.3974250000 2.1866710000 -0.6656460000
H 2.8383050000 3.8607480000 -0.5844170000
H 2.8099830000 2.8483510000 0.8603930000
C 0.5698140000 1.0773730000 3.3390530000
H 0.8381680000 0.8939730000 4.3834010000
H 0.9631790000 2.0587150000 3.0637610000
H -0.5201450000 1.1275550000 3.2797070000
C 0.6362090000 -1.9465060000 2.8390680000
H 1.0365920000 -2.7654200000 2.2384560000
H 0.9395100000 -2.1104790000 3.8772910000
H -0.4523600000 -2.0140770000 2.7919700000
C 3.1418020000 -0.2598180000 2.3404910000
H 3.5571700000 0.6872260000 1.9892390000
H 3.4685690000 -0.4058310000 3.3741670000
H 3.5825970000 -1.0580500000 1.7384100000
C 1.9220180000 -3.0767220000 -0.6847160000
H 2.3780060000 -3.7684380000 -1.3989410000
H 2.5748700000 -3.0258710000 0.1897760000
H 0.9667060000 -3.4996700000 -0.3682240000
C 0.6557750000 -1.5712780000 -3.0347880000
H 0.4518310000 -0.6049770000 -3.5018440000
H 1.1748530000 -2.1950380000 -3.7682300000
H -0.3011940000 -2.0469530000 -2.8092310000
C 3.3808680000 -0.6923780000 -1.9235510000
H 3.9122940000 -1.3851680000 -2.5825320000
H 3.3028130000 0.2646830000 -2.4442960000
H 3.9988380000 -0.5381600000 -1.0356920000
H -0.9686230000 -0.3341780000 -0.0618460000
C -2.4224520000 -0.9771540000 -0.0892860000
C -3.0320770000 -0.5248990000 1.2025690000
Cl -2.0645510000 -2.7099730000 -0.1316830000
C -3.0239260000 -0.4604940000 -1.3607040000
C -3.2125100000 0.9945930000 1.2186640000
C -3.9442300000 1.4857250000 -0.0286430000
C -3.2146990000 1.0569330000 -1.2999670000
H -2.4120810000 -0.8500230000 2.0412400000
H -4.0088070000 -1.0147690000 1.3275300000
H -3.9968150000 -0.9487240000 -1.5183300000
H -2.3945260000 -0.7371300000 -2.2097970000
H -2.2302080000 1.4722150000 1.2728110000
H -3.7543780000 1.2861110000 2.1214860000
H -4.0430490000 2.5740340000 -0.0015800000
H -4.9623020000 1.0788330000 -0.0378980000
H -2.2347760000 1.5404040000 -1.3334890000
H -3.7593630000 1.3895700000 -2.1867180000
