38
0 1
C 0.0065620000 -0.9295830000 -1.1623320000
C -2.1859380000 -0.6862740000 -0.2588220000
C 0.3518830000 0.4982830000 -0.7983340000
C -2.0037080000 0.6527110000 -0.1772970000
C -1.1610670000 -1.5018810000 -0.8607190000
C -3.2553560000 1.2782180000 0.3597340000
C 1.3316530000 0.6032870000 0.3913240000
H 1.5959120000 1.6655340000 0.4862230000
C 0.6973650000 0.1516380000 1.7106630000
H -0.1667320000 0.7659600000 1.9767230000
H 0.3556610000 -0.8831750000 1.6506020000
H 1.4062660000 0.2210340000 2.5387580000
N -0.8835200000 1.2847210000 -0.5546820000
C -0.7485880000 2.7219630000 -0.4537180000
H -1.7135900000 3.2036440000 -0.6090350000
H -0.3514680000 3.0389350000 0.5163010000
H -0.0687360000 3.0731140000 -1.2324280000
O -4.1349400000 0.1851190000 0.5700390000
H -3.7140430000 1.9754020000 -0.3467120000
H -3.0873080000 1.7962010000 1.3082200000
C -3.5256580000 -1.0058760000 0.1880690000
O -4.1088550000 -2.0486750000 0.2582520000
Si 3.0205380000 -0.2331490000 0.0980920000
C 3.5675930000 0.0417460000 -1.6798420000
C 4.2514310000 0.5983630000 1.2486930000
C 2.9735420000 -2.0675400000 0.4897490000
H 4.5775120000 -0.3479500000 -1.8314700000
H 2.9153290000 -0.4570810000 -2.4003310000
H 3.5885620000 1.1057570000 -1.9307800000
H 4.3433900000 1.6657820000 1.0322010000
H 3.9578660000 0.4955180000 2.2962090000
H 5.2442090000 0.1534270000 1.1431380000
H 2.6733550000 -2.2416320000 1.5256660000
H 2.2780290000 -2.6136980000 -0.1491300000
H 3.9657410000 -2.5074750000 0.3578880000
H 0.7812850000 -1.4907490000 -1.6689100000
H -1.3679760000 -2.5374160000 -1.1008880000
H 0.8359410000 0.9680120000 -1.6620930000
