26
1 1
C 2.3755700000 1.2109300000 -0.1590600000
C 3.7564000000 1.2003100000 -0.1576000000
C 4.4426000000 0.0005500000 -0.0003100000
C 3.7588000000 -1.2005500000 0.1570900000
C 2.3779800000 -1.2138800000 0.1587600000
C 1.6926700000 -0.0021700000 -0.0001200000
H 1.8281100000 2.1366600000 -0.2804300000
H 4.3012000000 2.1271900000 -0.2790500000
H 5.5255500000 0.0016200000 -0.0003900000
H 4.3054500000 -2.1263400000 0.2784700000
H 1.8324300000 -2.1407000000 0.2802200000
C 0.2833900000 -0.0033500000 -0.0001000000
N -0.8652800000 -0.0037400000 -0.0001000000
Si -2.7286300000 -0.0000000000 -0.0001200000
C -3.1468900000 -1.0168100000 -1.4873000000
H -2.7654200000 -2.0361500000 -1.4036800000
H -4.2336400000 -1.0819000000 -1.5894300000
H -2.7573900000 -0.5735100000 -2.4055300000
C -3.1443900000 -0.7764900000 1.6261800000
H -2.7538700000 -0.1973600000 2.4649200000
H -4.2309800000 -0.8253500000 1.7385100000
H -2.7628100000 -1.7965900000 1.6994900000
C -3.1226200000 1.8020300000 -0.1391200000
H -2.7327700000 2.2338800000 -1.0627200000
H -4.2077800000 1.9360600000 -0.1484100000
H -2.7308200000 2.3707100000 0.7062100000
