55
-1 1
N 2.7148830000 2.7227760000 0.3579310000
C 3.9061230000 3.1089730000 -0.1711500000
N 4.8407820000 2.1001490000 -0.4532710000
C 4.6818670000 0.7402430000 -0.2618960000
C 3.4206690000 0.3991180000 0.3517070000
C 2.4994240000 1.4394280000 0.5791160000
N 1.2621190000 1.0881060000 1.1061170000
N 3.1572860000 -0.9252910000 0.5821840000
C 1.9719270000 -1.2140600000 1.2092350000
C 0.9964190000 -0.2196200000 1.4616290000
C -0.2174730000 -0.5935810000 2.0408480000
C 1.6771980000 -2.5541360000 1.4967680000
C 0.4585940000 -2.9141590000 2.0292740000
C -0.4895040000 -1.9270950000 2.2891630000
H -1.4582340000 -2.2004680000 2.6889830000
H -0.9812040000 0.1457480000 2.2228120000
H 2.4433050000 -3.2881380000 1.2805850000
H 0.2319950000 -3.9544250000 2.2265440000
O 4.2112730000 4.2666640000 -0.4173870000
O 5.5396550000 -0.0567090000 -0.6262090000
C 3.6582980000 -2.6247510000 -2.3622800000
C 2.5278260000 -1.8137270000 -1.7669530000
H 4.6180500000 -2.1479640000 -2.1585310000
H 3.5416100000 -2.7253630000 -3.4463540000
H 3.6787520000 -3.6310350000 -1.9352160000
C 1.2618400000 -2.4024660000 -1.5526060000
H 2.5014830000 -0.7693690000 -2.0954940000
C 0.1174690000 -1.6675610000 -1.2580100000
H 1.1963540000 -3.4879570000 -1.5171930000
C -1.1157600000 -2.1768740000 -0.9005100000
H 0.1957610000 -0.5837660000 -1.2927190000
C -2.1654570000 -1.3082990000 -0.5146240000
H -1.2882560000 -3.2457240000 -0.8620650000
O -2.1440800000 -0.0849210000 -0.4472230000
S -3.7017560000 -2.1918560000 -0.0307950000
C -4.7323930000 -0.7526550000 0.3428970000
C -5.2589840000 -0.0632150000 -0.9134060000
H -4.1334450000 -0.0540600000 0.9261570000
H -5.5556200000 -1.1087120000 0.9649760000
N -6.0381570000 1.1251310000 -0.6153500000
H -5.8836680000 -0.7546380000 -1.4825520000
H -4.4187580000 0.2068780000 -1.5491010000
C -5.5687770000 2.3948900000 -0.4410250000
O -6.3066980000 3.2777390000 -0.0337630000
C -4.1297700000 2.6536810000 -0.8137440000
H -4.0258390000 2.6426590000 -1.9020390000
H -3.4433950000 1.9022540000 -0.4211560000
H -3.8607510000 3.6419410000 -0.4493870000
H -6.9939870000 1.0081400000 -0.3117680000
H 2.9923890000 -1.5241240000 -0.5765760000
H 5.7018450000 2.4005660000 -0.8863580000
C 0.2189020000 2.0914880000 1.2502400000
H 0.5967290000 3.0176310000 0.8307180000
H -0.0209820000 2.2476600000 2.3055290000
H -0.6762520000 1.7599490000 0.7182570000
