18
0 1
C -0.4475210000 0.4293910000 0.0000190000
C 0.4976660000 0.5455600000 -1.1921270000
C 0.4976240000 0.5454080000 1.1922110000
C -1.6077120000 1.4005390000 0.0000600000
C 1.7721400000 -0.2051880000 -0.7757130000
C 1.7720880000 -0.2053260000 0.7757550000
H 0.7093810000 1.6111300000 -1.3305400000
H 0.0510510000 0.1761800000 -2.1150210000
H 0.0509710000 0.1759410000 2.1150520000
H 0.7093630000 1.6109590000 1.3307430000
H -2.2313510000 1.2653680000 -0.8843580000
H -1.2228790000 2.4238250000 0.0001360000
H -2.2313870000 1.2652510000 0.8844340000
H 2.6636470000 0.2682400000 -1.1886470000
H 1.7481530000 -1.2274690000 -1.1534650000
H 2.6635940000 0.2679740000 1.1888380000
H 1.7480110000 -1.2276750000 1.1533190000
Cl -1.1508390000 -1.2748250000 -0.0001020000
