28
-1 1
C -1.0898240000 1.0789660000 0.2561770000
C -2.5783670000 0.7708560000 0.2156680000
C -2.8527550000 -0.7040580000 0.5384160000
H -2.9414300000 0.9814010000 -0.7895470000
H -3.1199680000 1.4145190000 0.9079970000
C -1.8633360000 -1.6499860000 -0.1308780000
C -0.4411650000 -1.1892870000 0.0389780000
O -0.4144130000 0.1127410000 -0.5358150000
C -0.7380990000 2.4354540000 -0.4008150000
C 0.7101600000 -1.9757710000 -0.5389530000
O 1.8830980000 -1.6709230000 0.2004570000
H 0.8442660000 -1.7397860000 -1.5977590000
H 0.5312980000 -3.0452670000 -0.4252850000
P 2.6772540000 -0.2327240000 -0.0019180000
O 1.9357080000 0.8607770000 0.7476550000
O 3.0431180000 -0.0686640000 -1.4319760000
O 3.9757970000 -0.5785410000 0.9171540000
H 4.5960990000 -1.1043020000 0.4041510000
O -2.2414220000 -2.6479140000 -0.7008660000
O -4.1731480000 -1.0563260000 0.2041480000
H -2.6910230000 -0.8590170000 1.6156520000
H -4.1118340000 -1.8937410000 -0.2780540000
O -1.5954940000 3.1833770000 -0.7999490000
O 0.5433690000 2.7178090000 -0.4553240000
H 1.1390000000 1.9937950000 -0.0857520000
O -0.6296710000 1.0538410000 1.5743550000
H 0.3557990000 1.0145120000 1.5314880000
H -0.2562410000 -1.1177220000 1.1156120000
