14
0 1
C 1.1627470000 -0.0326660000 -0.3709860000
C 2.0041670000 0.6471880000 0.6883350000
C -0.2985860000 0.3572610000 -0.2384550000
O -0.6747490000 1.4775150000 -0.4643260000
O -1.0794980000 -0.6359690000 0.1624700000
C -2.4672000000 -0.3125310000 0.3178770000
H 3.0534480000 0.3904230000 0.5437540000
H 1.6955000000 0.3202590000 1.6826840000
H 1.8870140000 1.7284860000 0.6158590000
H -2.9450840000 -1.2330350000 0.6401470000
H -2.8831790000 0.0277100000 -0.6298260000
H -2.5907980000 0.4703490000 1.0655120000
F 1.3256880000 -1.4063930000 -0.2789690000
H 1.4791210000 0.2654650000 -1.3731810000
