21
0 2
C 0.1332500000 -0.3715730000 0.2506810000
C 1.1442150000 -1.4866380000 -0.0995250000
C 2.1701550000 -0.3992950000 -0.4736920000
H 0.8278190000 -2.0645320000 -0.9688930000
H 1.3994090000 -2.1716390000 0.7094990000
C 1.0139670000 0.6322720000 -0.6061450000
H 2.7748550000 -0.5609670000 -1.3655170000
H 2.8324620000 -0.1503160000 0.3569300000
S -1.5288440000 -0.7228820000 -0.4021020000
C -2.3581680000 0.8641290000 -0.1258460000
H -3.3247710000 0.8053800000 -0.6245510000
H -1.7861350000 1.6807860000 -0.5668690000
H -2.5231660000 1.0591020000 0.9328380000
C 0.1185070000 -0.0525840000 1.7364240000
H -0.3395400000 -0.8739470000 2.2898310000
H -0.4358730000 0.8627060000 1.9486710000
H 1.1355210000 0.0875640000 2.1122570000
C 1.2243050000 2.0134940000 -0.1526590000
H 0.8832930000 2.8608890000 -0.7328290000
H 1.7119770000 2.2166650000 0.7932620000
H 0.6282710000 0.6155910000 -1.6264200000
