52
0 1
C -0.0727330000 -2.3640390000 -0.9542290000
H -0.1442630000 -3.4519060000 -0.9652470000
H 0.2265540000 -2.0509670000 -1.9633740000
C 1.0090810000 -1.9101670000 0.0310160000
C -0.3473020000 0.1206730000 0.4613140000
H -0.7624340000 -0.0806060000 1.4544350000
H -0.2808020000 1.2020290000 0.3886280000
C -1.3494330000 -0.3719050000 -0.6036470000
H -1.0038180000 -0.0088590000 -1.5779530000
N -1.3921070000 -1.8269350000 -0.6959060000
C 2.1857260000 0.2374340000 0.2454910000
C 2.0436500000 -2.7872630000 0.3347800000
H 2.3196510000 -2.9088220000 1.3658920000
H 2.1034480000 -3.7155020000 -0.2326860000
C 3.4279740000 -0.3427970000 -0.0445510000
H 4.0593760000 0.1753410000 -0.7646570000
C 3.8705530000 -1.5886550000 0.3847980000
C 1.0109340000 -0.5415670000 0.3586210000
C 5.0687740000 -2.2454010000 -0.2471910000
H 5.0395480000 -3.3285310000 -0.1147590000
H 5.1161290000 -2.0400690000 -1.3178850000
H 5.9977900000 -1.8900540000 0.2109030000
H 3.7750840000 -1.7698850000 1.4427540000
C -2.7216870000 0.2038730000 -0.3403380000
C -2.0698630000 -2.4360530000 0.4384440000
H -1.6301160000 -2.1371190000 1.4033910000
H -1.9554270000 -3.5189780000 0.3624020000
C -3.5424380000 -2.0643170000 0.3941640000
H -4.0171310000 -2.6098420000 -0.4273670000
C -3.7479900000 -0.5865930000 0.1746100000
H -4.0384570000 -2.3763710000 1.3172030000
C -4.9812870000 0.0006890000 0.4519420000
H -5.7781670000 -0.6154670000 0.8554110000
C -2.9539920000 1.5572360000 -0.5763690000
H -2.1590300000 2.1690220000 -0.9890890000
C -5.2042370000 1.3471300000 0.2200230000
H -6.1701750000 1.7843080000 0.4426590000
C -4.1832860000 2.1316050000 -0.3023920000
H -4.3464590000 3.1847510000 -0.4967620000
Si 2.1375630000 2.1298610000 0.0838230000
C 3.8912860000 2.7662260000 -0.1529130000
H 4.3250080000 2.4510970000 -1.1046260000
H 3.8846180000 3.8597260000 -0.1458190000
H 4.5563130000 2.4313210000 0.6458550000
C 1.1513690000 2.7071140000 -1.4144650000
H 0.0893800000 2.4676970000 -1.3587800000
H 1.5448700000 2.2459620000 -2.3239820000
H 1.2401670000 3.7910860000 -1.5290720000
C 1.4765690000 2.9107290000 1.6624380000
H 2.0755000000 2.5923090000 2.5194220000
H 1.5442050000 4.0003570000 1.5983750000
H 0.4374900000 2.6547380000 1.8732830000
