7
-1 1
O 0.8627250000 -1.0127820000 -0.8516130000
P 0.0000000000 -0.0000010000 -0.1742720000
O -0.8627290000 1.0127720000 -0.8516220000
O 0.9828380000 0.8278980000 0.8844380000
O -0.9828330000 -0.8278860000 0.8844540000
H 1.7516400000 0.2743440000 1.0444160000
H -1.7516440000 -0.2743370000 1.0444100000
