12
1 1
C 0.0000000000 -1.8178840000 0.0000000000
C 0.0000000000 -1.1249830000 1.2055310000
C 0.0000000000 0.2518640000 1.1935720000
N 0.0000000000 0.8534430000 0.0000000000
C 0.0000000000 0.2518640000 -1.1935720000
C 0.0000000000 -1.1249830000 -1.2055310000
F 0.0000000000 2.1991760000 0.0000000000
H 0.0000010000 -2.9006780000 0.0000000000
H 0.0000020000 -1.6392720000 2.1568410000
H 0.0000010000 0.8986360000 2.0609730000
H 0.0000010000 0.8986360000 -2.0609730000
H 0.0000020000 -1.6392720000 -2.1568410000
