26
0 1
Cl 2.0813450000 2.1814180000 -0.0738900000
C 1.5746690000 0.4605670000 -0.4854200000
C 0.1108690000 0.2778550000 -0.2062980000
C 2.4545670000 -0.4877240000 0.2558540000
C -0.7524890000 -0.0626400000 -1.2329110000
C -0.4105580000 0.4087980000 1.0833190000
C 3.3260660000 -1.2893050000 -0.3401170000
C -2.1077830000 -0.2827250000 -1.0012690000
C -2.6080230000 -0.1535270000 0.2870650000
C -1.7485070000 0.1966840000 1.3305760000
H 0.2398950000 0.6999840000 1.8994270000
H -2.7504300000 -0.5469330000 -1.8287460000
O -3.9076660000 -0.3417040000 0.6294120000
H -2.1614270000 0.3012080000 2.3256770000
H -0.3707840000 -0.1632280000 -2.2428580000
C -4.8253000000 -0.6871390000 -0.3876750000
H -5.7922990000 -0.7853770000 0.1000710000
H -4.5587230000 -1.6387060000 -0.8577330000
H -4.8833830000 0.0930650000 -1.1526980000
C 4.2055460000 -2.2714910000 0.3632640000
H 5.2602760000 -2.0572500000 0.1692140000
H 4.0172770000 -3.2890860000 0.0096440000
H 4.0449320000 -2.2492860000 1.4421000000
H 3.4223080000 -1.2410890000 -1.4231950000
H 2.3388510000 -0.5084090000 1.3358050000
H 1.7576310000 0.3785180000 -1.5542130000
