24
0 2
C -3.0026900000 0.1706990000 -0.9383580000
S -2.4764600000 -1.1797280000 0.1526890000
C -0.6583180000 -1.1094880000 -0.0393750000
C -0.0224280000 0.0908170000 0.6013910000
C -0.2033470000 0.2540720000 2.0872620000
C 0.0389830000 1.3033120000 -0.2746050000
O 0.0444150000 1.2078260000 -1.4916590000
S 2.8272700000 -0.6229630000 0.4355930000
C 2.8124080000 -0.7995680000 -1.3742040000
H -2.7791380000 1.1488860000 -0.5155350000
H -2.5315540000 0.0824800000 -1.9155360000
H -4.0823050000 0.0723910000 -1.0465590000
H 0.5725150000 0.8854410000 2.5268360000
H -0.1512140000 -0.7168180000 2.5811700000
H -1.1816640000 0.6834940000 2.3205870000
H -0.2994030000 -2.0219590000 0.4386430000
H -0.4143750000 -1.1478540000 -1.0991680000
H 3.8501740000 -0.7771070000 -1.7065600000
H 2.3646120000 -1.7445610000 -1.6766300000
H 2.2767990000 0.0293550000 -1.8340570000
H 1.3518170000 -0.2619470000 0.5411890000
N 0.1131070000 2.5099870000 0.3461670000
H 0.2740960000 3.3190600000 -0.2316750000
H 0.2019590000 2.6006100000 1.3422130000
