11
0 2
C 0.3831080000 0.0079940000 -0.1787380000
C 1.0765470000 1.3093610000 0.0373670000
C 1.1248790000 -1.2717200000 0.0107580000
H 2.0889410000 1.2725430000 -0.3723090000
H 1.1646780000 1.5530460000 1.1068810000
H 0.5515230000 2.1404620000 -0.4403160000
H 2.0912460000 -1.2277710000 -0.4980590000
H 0.5726280000 -2.1257260000 -0.3867100000
H 1.3287670000 -1.4771120000 1.0724700000
S -1.3535990000 -0.0993330000 0.0347390000
H -1.6474070000 1.1800780000 -0.2540980000
