13
-1 1
S -2.2271340000 -0.1269720000 -0.0652070000
C -0.8321480000 0.9737760000 0.3733780000
C 0.4742510000 0.6553260000 -0.3616400000
H -0.6400720000 0.9326240000 1.4534570000
H -1.0851920000 2.0079230000 0.1298500000
N 1.4601970000 1.7162790000 -0.1488170000
C 1.0568260000 -0.7262330000 -0.0181300000
H 0.2323550000 0.6082500000 -1.4297180000
O 2.2491170000 -0.8800480000 0.1637000000
O 0.2139590000 -1.7339240000 0.0164270000
H -0.7562920000 -1.3845850000 -0.0596050000
H 2.3850840000 1.3008700000 -0.2192430000
H 1.3786900000 2.0470810000 0.8076220000
