10
0 1
S 1.4287180000 -0.2924100000 -0.0111480000
C 0.0682990000 0.8955610000 -0.2945720000
C -1.2445110000 0.4493040000 0.3270620000
O -1.6909710000 -0.7868830000 -0.1810890000
H 0.3602900000 1.8806330000 0.0699500000
H -0.0342420000 0.9494420000 -1.3789620000
H -1.1440870000 0.4119100000 1.4200870000
H -2.0223770000 1.1782020000 0.0902110000
H -0.9715240000 -1.4216700000 -0.0838200000
H 1.5374890000 -0.0940840000 1.3146710000
