43
0 1
C 0.2467300000 -0.9339140000 -0.8671000000
C -2.0646130000 -0.7052350000 -0.0731190000
C 0.7054430000 0.0754580000 -0.0384600000
H 0.3093430000 0.0691460000 0.9692620000
C -2.0733690000 0.7520110000 -0.1545470000
C -3.4414440000 1.3967460000 -0.2865210000
C -1.0298340000 -1.4399000000 -0.6511430000
H -1.3029680000 -2.4187880000 -1.0345170000
H 0.8377140000 -1.2788680000 -1.7069800000
C -0.9919640000 2.8216950000 -0.6738690000
C -3.3024270000 -1.4582510000 0.1843070000
C 1.9843330000 0.8095950000 -0.1972660000
C 2.1021120000 1.9921780000 0.7744280000
H 2.1427080000 1.6464590000 1.8110900000
H 1.2474120000 2.6625330000 0.6954620000
H 2.0790590000 1.1591580000 -1.2318470000
H 3.0049260000 2.5740380000 0.5856390000
N -0.9941710000 1.4560590000 -0.1905240000
Si 3.4620280000 -0.3932520000 0.0759460000
C 3.6131340000 -1.6241920000 -1.3310710000
C 5.0314990000 0.6380630000 0.1364030000
C 3.2220260000 -1.2987900000 1.6995750000
H -0.0166860000 3.0223600000 -1.1213070000
H -1.1197720000 3.5285330000 0.1529980000
H -1.7512770000 3.0315550000 -1.4324250000
H 5.1439610000 1.2511770000 -0.7617420000
H 5.9063360000 -0.0144290000 0.1996490000
H 5.0544510000 1.3033120000 1.0016410000
H 3.6104550000 -1.1293600000 -2.3056110000
H 2.8080560000 -2.3597140000 -1.3208560000
H 4.5576070000 -2.1680070000 -1.2425930000
H 2.3168370000 -1.9098370000 1.6785450000
H 3.1433020000 -0.6086650000 2.5429150000
H 4.0667590000 -1.9634560000 1.8979780000
C -4.6050110000 -0.7094450000 0.3819270000
C -4.4203580000 0.7641840000 0.6965090000
H -5.1772510000 -1.2344440000 1.1478460000
H -5.1622280000 -0.8230140000 -0.5556780000
H -4.0358740000 0.8869510000 1.7139980000
H -5.3781880000 1.2874040000 0.6552900000
H -3.8118870000 1.2685330000 -1.3102780000
H -3.3683890000 2.4671220000 -0.1005170000
O -3.3088930000 -2.6772260000 0.2177670000
