28
1 1
C -2.9434830000 -1.1885890000 -0.5050420000
S -1.7731040000 0.1835070000 -0.4556340000
C -1.2164240000 0.1641680000 1.2916270000
C -2.8885630000 1.6034600000 -0.4529180000
C 0.2946170000 0.1406700000 1.3571480000
H -1.6620970000 -0.7041600000 1.7739560000
H -1.6013370000 1.0751760000 1.7463640000
C 0.9410100000 -1.1582910000 0.8464650000
O 0.7819970000 1.1764800000 0.5371580000
H 0.5832270000 0.3068690000 2.4044210000
C 2.1791580000 0.8821270000 0.2713120000
C 2.2234230000 -0.6562620000 0.1360200000
O 2.1450080000 -1.0746300000 -1.2101480000
H 3.1231980000 -1.0546520000 0.6069080000
O 0.0594890000 -1.8075950000 -0.0494400000
H 1.1730040000 -1.8354940000 1.6702810000
N 2.6815740000 1.5412580000 -0.8637030000
H 2.7525050000 1.1910850000 1.1514110000
H 0.5634790000 -1.9992340000 -0.8569800000
H 3.0021520000 -0.9787970000 -1.6368190000
H 2.1314410000 1.3694490000 -1.6952060000
H 2.8356910000 2.5303320000 -0.7290090000
H -3.3697140000 1.6479620000 -1.4288330000
H -2.2730000000 2.4907240000 -0.3133390000
H -3.6320960000 1.5171350000 0.3377240000
H -2.3563320000 -2.0923100000 -0.3604970000
H -3.4024180000 -1.1922690000 -1.4923490000
H -3.6994400000 -1.0744710000 0.2697890000
