30
-1 1
C 6.1870260000 0.7374230000 0.6866470000
C 5.0645250000 1.1413100000 -0.2752100000
H 6.9167760000 1.5431390000 0.8223830000
H 6.7225250000 -0.1395720000 0.3107800000
H 5.7758200000 0.4749730000 1.6643640000
C 4.0678810000 0.0483550000 -0.5220590000
C 2.7672700000 0.1157970000 -0.1872300000
C 1.7576200000 -0.8836470000 -0.3813580000
C 0.4612250000 -0.6764120000 0.0218760000
O -0.0418660000 0.2894060000 0.6438400000
S -0.6929260000 -2.0488910000 -0.4949930000
C -2.0235720000 -1.8730650000 0.7362580000
C -3.1780240000 -0.9710910000 0.3234090000
H -1.5726890000 -1.5071070000 1.6598890000
H -2.4032820000 -2.8798110000 0.9182750000
N -2.7286480000 0.3993160000 0.2269250000
H -3.9851150000 -1.0427730000 1.0620020000
H -3.5945900000 -1.2993090000 -0.6341480000
C -3.5572090000 1.3987910000 -0.0935400000
O -4.7623000000 1.2512570000 -0.2919750000
C -2.9068430000 2.7633190000 -0.1950770000
H -3.0837750000 3.1588710000 -1.1965830000
H -1.8345440000 2.7307120000 -0.0009820000
H -3.3887900000 3.4360760000 0.5165140000
H -1.7144210000 0.5513910000 0.3616880000
H 4.5413160000 2.0154470000 0.1264960000
H 5.5231400000 1.4676130000 -1.2198910000
H 2.0173520000 -1.8252620000 -0.8497740000
H 4.4500050000 -0.8565090000 -0.9955100000
H 2.4115670000 1.0291790000 0.2886890000
