32
0 1
C 1.7248890000 -1.2551800000 -0.0000100000
C 1.3976230000 0.1061630000 0.0000000000
C 2.4223390000 1.0553010000 0.0000000000
C 3.7486320000 0.6628450000 -0.0000080000
C 4.0470880000 -0.7089370000 -0.0000230000
C 3.0542360000 -1.6678780000 -0.0000230000
H 2.1765610000 2.1115350000 0.0000020000
H 5.0853610000 -1.0225100000 -0.0000370000
H 3.3072990000 -2.7210060000 -0.0000380000
C -0.0387290000 0.3192600000 0.0000040000
C -0.7352050000 1.5370330000 0.0000120000
C -0.7286700000 -0.8879710000 -0.0000030000
C -2.1146490000 1.5019360000 0.0000140000
H -0.1908690000 2.4693810000 0.0000160000
C -2.1285150000 -0.9113770000 -0.0000010000
C -2.8159770000 0.2835820000 0.0000080000
H -3.8949560000 0.3266080000 0.0000130000
S 0.3126180000 -2.2968740000 -0.0000150000
O -2.6996910000 -2.1380580000 -0.0000050000
O -2.9100430000 2.6055710000 0.0000220000
C 4.8623580000 1.6749000000 0.0000330000
H 5.4996380000 1.5602930000 -0.8802990000
H 4.4714280000 2.6930150000 -0.0003360000
H 5.4991480000 1.5607510000 0.8807830000
C -4.1117410000 -2.2190520000 -0.0000490000
H -4.3510110000 -3.2796470000 -0.0000810000
H -4.5332190000 -1.7495670000 0.8933340000
H -4.5331660000 -1.7495230000 -0.8934330000
C -2.2879180000 3.8728610000 0.0000480000
H -1.6709510000 4.0127120000 -0.8930050000
H -3.0928990000 4.6042630000 0.0000650000
H -1.6709490000 4.0126730000 0.8931060000
