37
0 1
C -0.6013370000 -0.4081950000 1.1199660000
H 0.2090420000 -0.7203820000 1.7910080000
B -0.1310370000 -0.2351990000 -0.3753420000
C -1.1281620000 0.9471430000 1.6307470000
H -0.2678930000 1.6157150000 1.7376110000
H -1.5551060000 0.8337010000 2.6339840000
C -1.6510610000 -1.5439400000 1.1057240000
H -1.1264830000 -2.4773430000 0.8697930000
C 2.2584390000 3.1124540000 -0.0008060000
H 1.7223330000 3.5480010000 -0.8373190000
H 2.7790670000 3.7941230000 0.6590720000
C 2.2712490000 1.7991770000 0.2106490000
C 1.5583830000 0.8232080000 -0.6072740000
H 2.8217510000 1.4032740000 1.0588400000
H -2.0771760000 -1.6780970000 2.1066490000
H 1.1158710000 1.1678360000 -1.5334070000
C 1.8147760000 -0.5407600000 -0.5447660000
O 0.8231000000 -1.3006800000 -0.9153200000
O 2.8468300000 -1.0604030000 0.0816880000
C 2.7940050000 -2.4599500000 0.4081880000
H 1.8936660000 -2.6803650000 0.9794060000
H 2.8092860000 -3.0596140000 -0.5002730000
H 3.6834980000 -2.6473340000 1.0025700000
C -2.7923420000 -1.3597900000 0.0920720000
H -3.3243740000 -2.3102230000 -0.0134160000
H -3.5268140000 -0.6603490000 0.4901770000
C -1.3002690000 0.2539530000 -1.3041650000
H -0.9789400000 0.3963750000 -2.3426210000
C -2.3361010000 -0.8950900000 -1.3007930000
H -1.8841050000 -1.7466080000 -1.8219210000
H -3.2149720000 -0.6103970000 -1.8903850000
C -1.8245540000 1.6022850000 -0.7752950000
H -2.7041430000 1.9187210000 -1.3473540000
H -1.0534080000 2.3575100000 -0.9670680000
C -2.1648670000 1.6302940000 0.7237320000
H -2.2690100000 2.6731530000 1.0383760000
H -3.1452950000 1.1822240000 0.8841700000
