16
0 2
N 0.1906670000 -1.5201530000 -0.0128040000
H -0.5087970000 -2.2088120000 -0.2825000000
C -0.3631850000 -0.2991050000 0.2892990000
C 0.4162620000 0.8129830000 0.8744010000
C -1.7914980000 -0.2475680000 -0.0156900000
H -0.2283600000 1.4199250000 1.5093360000
H 1.2426590000 0.4459370000 1.4744600000
S 1.1023790000 1.9864370000 -0.3750300000
O -2.3945600000 -1.2673210000 -0.3357450000
H 2.0140500000 1.1246710000 -0.8575930000
N -2.4145160000 0.9631530000 0.1095410000
H -3.3684410000 0.9841520000 -0.2171270000
H -1.8829340000 1.8101420000 -0.0157560000
C 1.5111560000 -1.8605900000 -0.1034580000
H 1.6440990000 -2.9236330000 -0.3535770000
O 2.4420840000 -1.1040150000 0.0605910000
