22
0 1
C 0.5174170000 -1.1379420000 0.0204510000
C 0.4221600000 -0.6444570000 1.4407120000
C 0.8770010000 1.2110030000 0.1060760000
C 0.6182820000 0.6692830000 1.4864900000
S 1.9433240000 -0.1304010000 -0.6570670000
C -2.5250350000 0.5791030000 0.3696940000
C -0.6246400000 -0.5014410000 -0.8139790000
C -0.3756730000 1.0312070000 -0.7837960000
C -1.6759510000 1.6893610000 -0.2571560000
H -2.4020940000 0.5348570000 1.4550960000
H -2.2114190000 2.1413000000 -1.0936060000
H -1.4589120000 2.4921630000 0.4484010000
H -3.5933350000 0.6617840000 0.1691470000
O 3.1835090000 -0.3548500000 0.1403650000
C -1.9914310000 -0.7302850000 -0.1768100000
O -2.5404880000 -1.7967150000 -0.1128600000
H 0.5795630000 1.2885190000 2.3718190000
H 0.1870990000 -1.2888560000 2.2761060000
H 0.6470560000 -2.2059880000 -0.1243970000
H -0.6359200000 -0.9171310000 -1.8224120000
H 1.3452930000 2.1899520000 0.0436750000
H -0.1474640000 1.4073460000 -1.7808900000
