14
0 1
C 1.4981480000 0.4704950000 0.6460230000
C 0.1391080000 0.8589970000 0.1114590000
O -0.7564360000 -0.1055640000 0.3003270000
C -2.0836380000 0.1378280000 -0.2091850000
C -2.9064100000 -1.0941080000 0.0715340000
O -0.0970950000 1.9206580000 -0.3982620000
Cl 2.1884240000 -0.9060680000 -0.2697060000
H 1.4224770000 0.1625510000 1.6863000000
H 2.1697920000 1.3151570000 0.5380020000
H -2.0076530000 0.3500800000 -1.2766790000
H -2.4850660000 1.0257210000 0.2819120000
H -2.4758210000 -1.9676830000 -0.4195010000
H -3.9216430000 -0.9521320000 -0.3037870000
H -2.9603010000 -1.2905750000 1.1432590000
