45
0 1
C -5.3861860000 -2.1654130000 0.3319170000
C -4.7580300000 -0.9435630000 0.5176840000
C -3.4859320000 -0.7002170000 -0.0034430000
C -2.8508090000 -1.7312800000 -0.7028920000
C -3.4825520000 -2.9495580000 -0.8937130000
C -4.7532110000 -3.1746310000 -0.3796120000
H -6.3746210000 -2.3287890000 0.7446690000
H -5.2609260000 -0.1603710000 1.0741130000
H -1.8445830000 -1.5888860000 -1.0758640000
H -2.9723390000 -3.7349170000 -1.4388620000
H -5.2412140000 -4.1303610000 -0.5260790000
C -2.8534870000 0.6101250000 0.2298170000
H -3.4433630000 1.3003000000 0.8171740000
C -1.9620960000 1.1440870000 -0.6985220000
H -1.6577090000 0.5339700000 -1.5374830000
C -0.4657310000 2.7623710000 -1.7067650000
C -1.6252120000 3.3335010000 0.3797570000
C 0.8939950000 3.0000150000 -1.0545900000
H -0.8063610000 3.6785190000 -2.2028600000
H -0.4084680000 1.9767950000 -2.4587810000
C -0.2915540000 3.5753730000 1.0835350000
H -2.0026000000 4.2722420000 -0.0414610000
H -2.3681170000 2.9620310000 1.0795350000
C 0.7806740000 4.0090070000 0.0861680000
H 1.5978530000 3.3474800000 -1.8146650000
H 1.2730660000 2.0503690000 -0.6701530000
H -0.4317420000 4.3329300000 1.8582110000
H 0.0156880000 2.6549260000 1.5871790000
H 1.7431630000 4.1218390000 0.5894560000
H 0.5210290000 4.9932190000 -0.3216700000
N -1.4662790000 2.3811020000 -0.7142510000
N -0.0776530000 -0.2086320000 0.3612680000
N -0.6191170000 -0.1133390000 1.5269220000
N -1.6785440000 0.2179340000 1.8906320000
C 1.2520180000 -0.5778570000 0.2852370000
C 2.1550000000 -0.7757370000 1.3332870000
C 1.7684990000 -0.7364950000 -1.0051870000
C 3.4756660000 -1.1200860000 1.1037630000
C 3.0833100000 -1.0746200000 -1.2453390000
C 3.9502320000 -1.2720900000 -0.1849420000
F 1.7644800000 -0.6263930000 2.6027130000
F 4.2985850000 -1.2992690000 2.1350810000
F 5.2227450000 -1.6000410000 -0.4043110000
F 3.5209230000 -1.2096810000 -2.4960690000
F 0.9582470000 -0.5422090000 -2.0564610000
