52
0 1
C 1.8718020000 -2.4684340000 0.0877190000
C 1.6071280000 -1.3955820000 1.1608030000
C 1.4244710000 0.4249940000 -1.3308390000
H 0.9463280000 -2.9983600000 -0.1587610000
C 2.8728540000 -0.5449190000 1.4350130000
H 2.9796990000 -0.4190530000 2.5166140000
H 3.7627340000 -1.0955220000 1.1126260000
H 1.2011080000 1.0777990000 -2.1796380000
H 1.4066410000 -1.9456470000 2.0881990000
H 0.1748730000 0.2178250000 1.9369580000
C 2.8793340000 0.8622420000 0.8335120000
H 2.1059570000 1.4398030000 1.3418530000
H 3.8241880000 1.3463690000 1.1025050000
C 2.6887210000 1.0288770000 -0.6785550000
H 2.6866310000 2.1079920000 -0.8664940000
H 3.5694710000 0.6489600000 -1.2062490000
C 1.6826700000 -0.9471540000 -1.9887770000
H 0.7191860000 -1.3883210000 -2.2662060000
C 2.4966250000 -1.9734270000 -1.2102960000
H 2.6616180000 -2.8381390000 -1.8608010000
H 3.4923570000 -1.5682630000 -1.0079620000
H 2.2121280000 -0.7604940000 -2.9299770000
H 2.5468230000 -3.2194010000 0.5158620000
C 0.1537030000 0.4490980000 -0.4321040000
H -0.6220570000 0.0034880000 -1.0658750000
Si -0.5338550000 2.2060660000 -0.1960390000
C 0.1826260000 3.1683630000 1.2591530000
H 1.2241200000 3.4508890000 1.0948970000
H -0.3890330000 4.0910980000 1.3935910000
H 0.1342440000 2.6119100000 2.1979670000
C -0.2268800000 3.2362890000 -1.7452080000
H -0.7210880000 4.2074780000 -1.6533200000
H -0.6268350000 2.7479850000 -2.6380420000
H 0.8352270000 3.4236110000 -1.9179200000
C -2.4026650000 2.1579420000 0.0404830000
H -2.8969210000 1.7963730000 -0.8640010000
H -2.7134500000 1.5119120000 0.8613020000
H -2.7751360000 3.1670220000 0.2381940000
B 0.3391820000 -0.4273050000 0.9139280000
C -1.3472130000 -0.8734570000 2.0053050000
C -1.1183460000 -1.8006120000 1.0620600000
H -0.5653220000 -2.6948310000 1.3113060000
C -1.8910410000 -0.2055850000 2.9785280000
H -2.7967610000 -0.6019340000 3.4253900000
H -1.4924640000 0.7263970000 3.3504150000
C -1.8864470000 -1.9108500000 -0.2009570000
O -1.6743300000 -2.7605990000 -1.0253580000
O -2.8424360000 -0.9857500000 -0.3118480000
C -3.5921830000 -1.0093090000 -1.5302860000
H -4.0911840000 -1.9701790000 -1.6501270000
H -4.3180810000 -0.2061360000 -1.4408440000
H -2.9337670000 -0.8390870000 -2.3822430000
