49
0 2
C -0.0070590000 0.3213170000 2.3223930000
C 1.2879630000 0.9098050000 2.7130770000
Si 0.0006330000 0.0186340000 0.3961410000
Si 0.7487670000 1.9312590000 -0.7469970000
Si -2.1638950000 -0.5447670000 -0.3436530000
Si 1.4288040000 -1.7814860000 -0.1046720000
C 2.6238360000 2.0944600000 -0.6445760000
H 2.9608260000 2.9946920000 -1.1667550000
H 2.9590850000 2.1613440000 0.3924950000
H 3.1266860000 1.2391700000 -1.1017060000
C 0.2661030000 1.7928160000 -2.5656160000
H 0.6531690000 2.6478580000 -3.1272860000
H 0.6687990000 0.8863950000 -3.0226670000
H -0.8183570000 1.7774800000 -2.6951830000
C -0.0276570000 3.5006560000 -0.0477950000
H 0.2811720000 4.3706820000 -0.6346260000
H -1.1187230000 3.4541690000 -0.0694560000
H 0.2793390000 3.6736060000 0.9858560000
C -2.0787810000 -1.3370060000 -2.0534290000
H -1.5257640000 -2.2785120000 -2.0353220000
H -3.0864160000 -1.5534860000 -2.4200030000
H -1.5955710000 -0.6802630000 -2.7797940000
C -2.9610590000 -1.7774770000 0.8402610000
H -3.0665810000 -1.3670570000 1.8468310000
H -3.9596180000 -2.0541960000 0.4897150000
H -2.3698700000 -2.6924700000 0.9170840000
C -3.2640550000 0.9827200000 -0.4647870000
H -3.3585790000 1.4929030000 0.4958370000
H -2.8672270000 1.7027730000 -1.1841900000
H -4.2690960000 0.7051020000 -0.7955690000
C 0.6058200000 -3.4176370000 0.3489400000
H -0.2956510000 -3.5942550000 -0.2417580000
H 1.2884930000 -4.2531270000 0.1690440000
H 0.3215520000 -3.4444970000 1.4038550000
C 1.8127660000 -1.7961740000 -1.9509650000
H 2.4201040000 -2.6693630000 -2.2058750000
H 0.9040060000 -1.8357740000 -2.5548560000
H 2.3724720000 -0.9071840000 -2.2502470000
C 3.0575810000 -1.6725170000 0.8377210000
H 3.7312650000 -2.4728200000 0.5176060000
H 3.5627140000 -0.7198750000 0.6663850000
H 2.9052160000 -1.7817010000 1.9138000000
C -1.1960920000 1.1753100000 2.7747460000
H -2.1503600000 0.7111680000 2.5223050000
H -1.1732250000 1.3226890000 3.8578890000
H -1.1747910000 2.1621980000 2.3069380000
H -0.1015460000 -0.6819240000 2.7554520000
H 2.1853540000 0.3103610000 2.7802050000
H 1.3945970000 1.9853150000 2.7927100000
