37
0 1
C 4.0187190000 -2.3946760000 0.6357360000
O 2.6733510000 -1.9637110000 0.4689770000
H 4.4447760000 -2.6977380000 -0.3226680000
C -0.1572640000 -0.4238230000 0.4897120000
C 0.9450250000 -0.2535270000 -0.3453440000
C -1.5116290000 -0.6878530000 -0.0078280000
C -1.9481240000 -0.2652100000 -1.2686650000
C -2.4211360000 -1.3780280000 0.7988920000
C -3.2409390000 -0.5158940000 -1.6958300000
C -3.7139010000 -1.6358630000 0.3684920000
C 2.9873740000 1.3170620000 -0.9827650000
C -4.1336210000 -1.2036000000 -0.8812960000
C 1.7318440000 1.6258390000 -0.2226710000
C 0.6826170000 2.4232960000 -0.6514080000
C -0.4902290000 2.4833810000 0.1055870000
C -0.6538160000 1.7970700000 1.2876540000
C -1.9629910000 1.7478300000 2.0078810000
O 3.4223300000 0.0144490000 -0.5741920000
B 2.3996570000 -0.7814410000 -0.1220090000
H 0.7052470000 -0.2059810000 -1.4080090000
H 0.0258860000 -0.7553940000 1.5069970000
H -1.2738110000 0.2816130000 -1.9155990000
H -2.1006390000 -1.7253350000 1.7749850000
H -3.5567160000 -0.1726820000 -2.6742570000
H -4.3957680000 -2.1783770000 1.0128720000
H 3.7967850000 2.0128880000 -0.7527630000
H 2.8186440000 1.3277380000 -2.0638410000
H -5.1427480000 -1.4027460000 -1.2205110000
H 1.8891940000 1.5685220000 0.8503660000
H 0.2166860000 1.5638370000 1.8863960000
H -2.0948720000 0.8003470000 2.5336240000
H -2.8007940000 1.8612130000 1.3179660000
H -2.0247440000 2.5445250000 2.7568740000
H 4.0049570000 -3.2492650000 1.3103300000
H 4.6364760000 -1.5998870000 1.0572010000
H 0.6661210000 2.7869280000 -1.6743450000
H -1.3699920000 2.9250800000 -0.3527330000
