13
0 1
C 1.8153150000 0.0000000000 0.0056020000
C 1.1508870000 1.2096390000 -0.0014880000
C -0.2360970000 1.2024840000 -0.0135300000
C -0.9361000000 -0.0000020000 -0.0077420000
C -0.2360960000 -1.2024850000 -0.0134970000
C 1.1508900000 -1.2096380000 -0.0014740000
S -2.7277760000 -0.0000280000 -0.0713070000
H 1.7146460000 2.1331590000 -0.0026160000
H -0.7810790000 2.1373210000 -0.0270090000
H -0.7810790000 -2.1373220000 -0.0269250000
H 1.7146500000 -2.1331580000 -0.0025850000
F 3.1623550000 0.0000030000 0.0149860000
H -2.9367070000 0.0004370000 1.2579380000
