12
0 1
C -0.3807470000 0.0014590000 0.0456960000
C -0.8446770000 -1.2189700000 -0.7252900000
C -0.8876780000 1.3083910000 -0.5171670000
O -0.7501230000 -0.0479660000 1.3798640000
H -1.9350020000 -1.2662680000 -0.6832530000
H -0.4342040000 -2.1315420000 -0.2896000000
H -0.5281410000 -1.1658700000 -1.7660380000
H -0.5751860000 1.4289230000 -1.5531540000
H -0.5048520000 2.1392140000 0.0731840000
H -1.9783580000 1.3126720000 -0.4663390000
H -0.4672560000 -0.8850340000 1.7623770000
Cl 1.4766230000 0.0239030000 -0.0550310000
