45
0 1
C -1.5279630000 -2.2957210000 -0.5622450000
H -2.2592790000 -2.6779750000 0.1450960000
H -0.8712620000 -0.8930440000 0.9533300000
C 0.7336560000 -2.5430450000 -0.7257130000
O 1.7978670000 -3.0683740000 -0.8645290000
C 2.0050340000 0.5432940000 -1.1872580000
O 2.9909890000 1.4185050000 -0.8691910000
O 1.7777980000 -0.2266790000 1.0438260000
H 3.2712720000 -1.2561300000 3.6538910000
H 2.2094820000 0.1625550000 3.5761020000
H 3.8404470000 -1.8036600000 -0.0039100000
H 4.9743380000 -1.5166390000 1.3369190000
C 1.8903240000 3.5952470000 -0.9227840000
H 1.3501750000 2.4421270000 0.7531030000
H 1.7401450000 4.5239970000 -1.4678700000
H -1.5882660000 0.1698380000 -1.8130290000
C -2.9441480000 0.4651380000 -0.1704560000
C -4.3897130000 1.1015250000 1.6599550000
C -5.3454560000 0.2777250000 -0.3807550000
H -3.9529440000 -0.2407240000 -1.9264800000
H -6.5003260000 0.8778370000 1.3266290000
H -2.2510360000 1.2287420000 1.7118520000
H -1.9807400000 -2.2207820000 -1.5542550000
C -0.8936410000 -0.9729280000 -0.1395050000
N 0.4662830000 -1.1841680000 -0.6403100000
O -0.4345820000 -3.2196420000 -0.6316650000
C 1.4861850000 -0.2813300000 -0.2890460000
H 1.6747700000 0.5097880000 -2.2198380000
B 3.0074720000 -0.5292330000 1.6037220000
C 3.1010670000 -0.2989140000 3.1485810000
H 3.9704280000 0.3204530000 3.3916210000
C 4.1831540000 -1.0711340000 0.7314630000
H 4.6227470000 -0.2401930000 0.1689370000
C 2.9069140000 2.6730420000 -1.5263350000
C 1.2099530000 3.3556210000 0.1872820000
H 0.4962340000 4.0757380000 0.5675220000
C -1.5572830000 0.2668450000 -0.7248530000
H -0.9335310000 1.1345940000 -0.4974570000
C -3.1198970000 0.9545090000 1.1227530000
C -5.5077440000 0.7614220000 0.9090190000
C -4.0715840000 0.1311460000 -0.9145380000
H -6.2120660000 0.0159730000 -0.9759470000
H -4.5080980000 1.4864330000 2.6657520000
H 3.9042850000 3.1125980000 -1.4573450000
H 2.6921730000 2.5186980000 -2.5919910000
