24
-1 1
C -1.6157990000 0.9903910000 0.0109020000
S -1.3440810000 -0.5083290000 -0.8968210000
S -3.8907260000 0.4038850000 0.8308370000
H -2.0834780000 1.8162450000 -0.4834230000
H -1.3467040000 1.0530360000 1.0469680000
C -2.3226250000 -1.7001050000 0.0715240000
C -3.7769430000 -1.2726750000 0.1455430000
H -2.1874910000 -2.6599200000 -0.4386260000
H -1.8959770000 -1.7762250000 1.0731430000
H -4.2199030000 -1.3155570000 -0.8526820000
H -4.3216440000 -1.9722360000 0.7874040000
S 0.5017400000 2.0513900000 -0.5055230000
C 1.5650200000 0.9831850000 0.5121420000
C 2.6576250000 0.2895010000 -0.3047310000
H 0.9491710000 0.2088850000 0.9869140000
H 2.0381350000 1.5539670000 1.3097720000
C 3.5974870000 -0.5253190000 0.5936210000
O 4.1243460000 -0.0916350000 1.5842690000
O 3.7980520000 -1.7700340000 0.1557930000
H 3.2471810000 -1.8098680000 -0.6687700000
N 2.1383020000 -0.5880000000 -1.3621320000
H 3.2829250000 1.0621530000 -0.7598220000
H 1.1586970000 -0.7966450000 -1.1704560000
H 2.1322610000 -0.0955040000 -2.2458890000
