19
0 1
C -2.4140600000 -0.0661620000 0.8036930000
C -0.9548720000 0.0524250000 0.5239140000
C -0.1451720000 -1.0721740000 0.4802870000
C -0.3712400000 1.2993920000 0.2924790000
H -0.5792620000 -2.0508440000 0.6524000000
C 1.2157390000 -0.9755970000 0.2148450000
C 0.9767680000 1.4147840000 0.0279670000
C 1.7798670000 0.2745970000 -0.0135790000
H -0.9878720000 2.1909680000 0.3164170000
H 1.8164720000 -1.8733710000 0.1905620000
H 1.4374540000 2.3777870000 -0.1505280000
O 3.0927920000 0.4851700000 -0.2797370000
C 3.9535990000 -0.6337520000 -0.3459600000
H 4.9410570000 -0.2399060000 -0.5746420000
H 3.6471970000 -1.3246430000 -1.1370620000
H 3.9886540000 -1.1658540000 0.6094880000
H -2.8020560000 0.8072640000 1.3210880000
H -2.6459990000 -0.9587680000 1.3783080000
Cl -3.4001030000 -0.2002980000 -0.7217660000
