52
0 2
Si -3.2816580000 0.1119740000 -0.0998590000
C -2.0823250000 1.5504390000 -0.3247420000
C -2.0780710000 2.5734800000 0.8156390000
C -3.2615520000 -0.9433660000 -1.6607050000
C -4.1795010000 -2.1691110000 -1.6165190000
C -5.0211610000 0.7714550000 0.2213660000
C -5.5748730000 1.6646220000 -0.8940790000
C -2.7539710000 -0.9567290000 1.3870590000
C -1.4232910000 -1.5753690000 1.1835180000
C -0.1546090000 -0.9060340000 1.5861620000
C 0.9785700000 -1.0690540000 0.5717700000
C 3.4020090000 -0.5466910000 -0.0124340000
C 2.2737040000 -0.3901860000 1.0005500000
C 4.6974800000 0.1358210000 0.4119120000
C 5.8257890000 -0.0221170000 -0.6008550000
C 7.1221980000 0.6611000000 -0.1787290000
C 8.2429670000 0.4958370000 -1.1987370000
H -1.0769830000 1.1401520000 -0.4647190000
H -2.3266940000 2.0512720000 -1.2679960000
H -1.8217580000 2.1110300000 1.7722560000
H -1.3552470000 3.3736660000 0.6391710000
H -3.0581520000 3.0416750000 0.9365980000
H -2.2284270000 -1.2583760000 -1.8407550000
H -3.5299160000 -0.3076500000 -2.5114810000
H -4.1317950000 -2.7447410000 -2.5439830000
H -3.9059960000 -2.8443730000 -0.8017060000
H -5.2238300000 -1.8838580000 -1.4649570000
H -5.0140060000 1.3205770000 1.1691230000
H -5.6907140000 -0.0801310000 0.3832530000
H -4.9439910000 2.5427420000 -1.0550020000
H -5.6318260000 1.1287100000 -1.8450130000
H -6.5804130000 2.0251740000 -0.6640610000
H -0.3378940000 0.1607750000 1.7571210000
H 0.1921020000 -1.2986650000 2.5562670000
H 1.1618020000 -2.1370130000 0.4074500000
H 0.6565190000 -0.6649880000 -0.3944900000
H 3.0792770000 -0.1414310000 -0.9787580000
H 3.5927030000 -1.6133610000 -0.1796330000
H 2.5941710000 -0.7972780000 1.9668090000
H 2.0839000000 0.6766690000 1.1688620000
H 4.5067360000 1.2027350000 0.5779060000
H 5.0197210000 -0.2685420000 1.3787890000
H 6.0175110000 -1.0890350000 -0.7665720000
H 5.5037010000 0.3813460000 -1.5683450000
H 6.9298790000 1.7268920000 -0.0140560000
H 7.4431100000 0.2576520000 0.7878410000
H 9.1591230000 0.9934680000 -0.8735720000
H 8.4767070000 -0.5602900000 -1.3580160000
H 7.9596420000 0.9195700000 -2.1659970000
H -1.3606750000 -2.5436620000 0.6972770000
H -2.7640130000 -0.3182550000 2.2788140000
H -3.5312570000 -1.7146710000 1.5325390000
