16
1 1
C -0.9294340000 0.2829210000 -0.0000010000
C -0.0406760000 1.3790100000 -0.0000350000
C 1.3029910000 1.1619220000 -0.0000380000
N 1.7365060000 -0.1117560000 -0.0000070000
C 0.9550570000 -1.1960850000 0.0000270000
C -0.4027580000 -1.0229020000 0.0000310000
F 3.0702030000 -0.3096150000 -0.0000100000
O -2.2024900000 0.5734670000 -0.0000010000
H -0.4324560000 2.3866470000 -0.0000600000
H 2.0643410000 1.9301380000 -0.0000630000
H 1.4594340000 -2.1532280000 0.0000500000
H -1.0342000000 -1.8982600000 0.0000590000
C -3.1966460000 -0.4684060000 0.0000260000
H -4.1499550000 0.0493720000 0.0000090000
H -3.1029120000 -1.0761490000 0.9006380000
H -3.1029080000 -1.0762000000 -0.9005510000
