46
1 1
C -0.8647870000 -1.5933750000 -0.7915940000
C -1.7009860000 -0.6183600000 -0.2413760000
C -2.9842660000 -0.9801270000 0.1556510000
C -3.4249480000 -2.2894440000 0.0129960000
C -2.5582630000 -3.2403490000 -0.5412510000
C -1.2799100000 -2.9061200000 -0.9524490000
H -3.6489820000 -0.2357850000 0.5779760000
H -2.9012510000 -4.2614920000 -0.6601060000
H -0.6328550000 -3.6524480000 -1.3966680000
C -1.0562180000 0.6923520000 -0.1680200000
C -1.5799460000 1.8907310000 0.3131950000
C 0.2439450000 0.6486710000 -0.6578110000
C -0.7673570000 3.0184280000 0.2960550000
H -2.5929020000 1.9325040000 0.6833950000
C 1.0701270000 1.7733660000 -0.6504060000
C 0.5548780000 2.9621080000 -0.1772070000
H 1.1347210000 3.8728480000 -0.1524090000
S 0.7155840000 -0.9398730000 -1.2427960000
O 2.3315750000 1.5827730000 -1.0994740000
O -1.1516920000 4.2326110000 0.7255820000
C -4.8135870000 -2.6887520000 0.4256620000
H -5.3243940000 -1.8780900000 0.9445690000
H -5.4130460000 -2.9589850000 -0.4467710000
H -4.7924380000 -3.5561680000 1.0880220000
C 3.1686910000 2.7247000000 -1.2608290000
H 3.3741540000 3.1969510000 -0.2975070000
H 2.7085930000 3.4461130000 -1.9387540000
H 4.0947110000 2.3571670000 -1.6944470000
C -2.4752270000 4.4047870000 1.2106860000
H -2.6533910000 3.7840600000 2.0926380000
H -2.5564030000 5.4531060000 1.4838830000
H -3.2093560000 4.1726110000 0.4350870000
C 2.1994660000 -1.5521550000 0.5238300000
H 2.3786160000 -2.4794140000 0.0070560000
H 2.7821170000 -0.6970690000 0.2193200000
C 1.2454070000 -1.4671760000 1.6703210000
H 1.7808810000 -1.5108380000 2.6187750000
H 0.7080660000 -0.5182110000 1.6568810000
H 0.5242080000 -2.2826490000 1.6520910000
N 4.0379340000 -2.1207200000 1.6144050000
H 4.2582550000 -1.3807410000 2.2744080000
H 3.8520630000 -2.9589660000 2.1572080000
C 5.1423480000 -2.3337260000 0.6712870000
H 6.0788140000 -2.6004190000 1.1655920000
H 5.3023470000 -1.4235410000 0.0926220000
H 4.8773240000 -3.1339560000 -0.0202640000
