13
0 1
C 0.4673530000 0.3636250000 -0.2957740000
C -0.7064330000 0.1855390000 0.6152920000
C -1.9103570000 -0.0502170000 0.1839040000
C 1.1884850000 1.6798340000 -0.0810600000
H -0.5191170000 0.2710930000 1.6821910000
H 1.5300800000 1.7690660000 0.9515050000
H 0.5040270000 2.5045220000 -0.2927860000
H 2.0527020000 1.7618050000 -0.7401430000
C -3.1085640000 -0.2869960000 -0.2564680000
H -3.4631530000 -1.3028970000 -0.3908690000
H -3.7889660000 0.5215090000 -0.4992670000
Cl 1.6439800000 -1.0076160000 -0.0220580000
H 0.1538620000 0.2536730000 -1.3310150000
