11
0 1
C 0.0170020000 -1.3409610000 0.1138460000
S 1.4890840000 -0.3055960000 -0.1506370000
S -1.5040080000 -0.3184020000 0.0282600000
C 0.6885340000 1.2387360000 0.3722950000
C -0.6793960000 1.2791100000 -0.2801910000
H 1.3201960000 2.0607150000 0.0330470000
H 0.6089180000 1.2769700000 1.4591110000
H -0.5913100000 1.4531210000 -1.3518400000
H -1.3090740000 2.0540630000 0.1589230000
H 0.0508570000 -1.8225550000 1.0887180000
H 0.0023580000 -2.0996460000 -0.6656270000
