23
0 2
N 2.5817190000 0.6456550000 -0.9934680000
H 3.1885500000 0.0030680000 -1.4905330000
C 1.6140370000 0.0465480000 -0.1389350000
H 0.5065990000 0.6086690000 -0.4422390000
C 1.3825190000 -1.4079380000 -0.4726420000
C 1.7741050000 0.3032810000 1.3694050000
H 0.9231090000 -1.4857400000 -1.4583240000
H 0.7123140000 -1.8465110000 0.2593110000
S 2.9101390000 -2.4093420000 -0.5615420000
O 1.8989500000 -0.6493210000 2.1161620000
H 3.2171240000 -2.2807580000 0.7413300000
N 1.7558210000 1.5831700000 1.7624160000
H 1.6510850000 2.3331730000 1.0872210000
H 1.8695510000 1.7784610000 2.7443690000
C 2.7058110000 1.9733600000 -1.2481280000
H 3.4805130000 2.1896720000 -1.9979880000
O 2.0461540000 2.8445060000 -0.7231190000
O -0.5532970000 1.0652720000 -0.9674630000
O -1.3778280000 -0.0331930000 -1.1376330000
C -2.3350230000 -0.1086600000 -0.1316340000
Cl -3.2889870000 -1.5265510000 -0.5762220000
Cl -1.5683570000 -0.3521220000 1.4632140000
Cl -3.3446790000 1.3486730000 -0.0877600000
