35
0 1
C 0.0806780000 -0.4330510000 -0.3144440000
C 0.3153330000 -0.2106570000 1.1002740000
C -1.5736700000 -2.4589120000 -0.1510110000
O -2.0451190000 -1.8692220000 -1.2450820000
C -2.1443600000 -1.9131520000 0.9939420000
C -2.8310040000 -0.7949020000 0.5822370000
C -2.5684080000 -0.6585410000 -0.8077260000
C -0.9608270000 0.3150590000 -0.9091260000
C -1.3425380000 1.6805370000 -0.3859360000
O -0.2726120000 2.4769110000 -0.3417860000
O -2.4603680000 2.0494690000 -0.1404380000
O -0.4169930000 0.4636160000 1.8008050000
O 1.4118740000 -0.8202360000 1.6031300000
C 1.6601930000 -0.5912470000 2.9918410000
C -0.5013320000 3.7924760000 0.1744860000
S 1.2166490000 -1.3418100000 -1.3245170000
C 2.3329380000 -0.0175180000 -1.9167900000
C 3.0468570000 0.7273400000 -0.8002830000
O 3.8101990000 -0.1196800000 0.0285340000
H -0.9757890000 -3.3448490000 -0.2963430000
H -1.9876020000 -2.2602400000 2.0020390000
H -3.3298200000 -0.0577780000 1.1872430000
H -3.2175170000 -0.1707560000 -1.5191600000
H 2.5763540000 -1.1306070000 3.2185150000
H 0.8345280000 -0.9680510000 3.5952310000
H 1.7866200000 0.4733310000 3.1867590000
H 0.4624920000 4.2927290000 0.1362260000
H -0.8602580000 3.7264790000 1.2012050000
H -1.2349720000 4.3202880000 -0.4339570000
H -0.8951990000 0.3418500000 -1.9946550000
H 1.7686740000 0.6827440000 -2.5365760000
H 3.0568510000 -0.5355960000 -2.5490360000
H 2.3159280000 1.3005670000 -0.2175580000
H 3.7443040000 1.4422820000 -1.2428820000
H 3.1900290000 -0.7148990000 0.4691420000
