11
0 1
C 1.0533690000 0.0257750000 -0.0187330000
O 1.6029660000 0.6711600000 -0.8650820000
O 1.6058130000 -1.0418850000 0.5747950000
C -0.3347090000 0.3088510000 0.5242420000
C -0.7711120000 1.7327470000 0.2776370000
H -0.1000410000 2.4169200000 0.8015360000
H -1.7847040000 1.8837420000 0.6469790000
H -0.7342270000 1.9658570000 -0.7852850000
Cl -1.4614310000 -0.8560550000 -0.2813080000
H 2.4679700000 -1.1965130000 0.1634330000
H -0.3602020000 0.0444980000 1.5789970000
