22
0 1
C 0.7735030000 -1.0089500000 0.9236190000
C 0.3496310000 -0.0708510000 1.8505940000
C 1.1764300000 1.2821790000 0.1619130000
C 0.5911440000 1.2368210000 1.4234400000
H 1.5920030000 2.1773060000 -0.2830620000
H 0.2733430000 2.1155340000 1.9688230000
H -0.1986250000 -0.3237590000 2.7480240000
H 0.7672260000 -2.0814470000 1.0606370000
S 2.0939660000 -0.2530860000 -0.0198620000
O 2.1833410000 -0.7308310000 -1.4316580000
C -2.4342130000 0.6523270000 0.0891910000
C -0.6301720000 -0.6683050000 -0.8301290000
C -0.3905970000 0.6512030000 -1.1895340000
H -2.2855040000 0.9081000000 1.1423290000
H -0.1762300000 -1.5173370000 -1.3204860000
H 0.2478110000 0.8854090000 -2.0315940000
H -3.5052090000 0.6997440000 -0.1056540000
C -1.5808490000 1.5285360000 -0.8364430000
H -1.2988920000 2.4805500000 -0.3849880000
H -2.1248660000 1.7634670000 -1.7555230000
C -1.9213250000 -0.7681130000 -0.1185110000
O -2.4828210000 -1.7775790000 0.2359630000
