23
0 2
C -0.5682540000 -1.5412040000 -0.7160780000
H -0.0337870000 -2.4971630000 -0.7105740000
H -0.8414470000 -1.3409210000 -1.7564580000
C -1.8416460000 -1.6769750000 0.1278100000
H -2.3021820000 -2.6284380000 -0.1513600000
C -2.5649170000 0.7847760000 0.5544300000
H -3.4742740000 1.3814510000 0.6419140000
H -1.5728290000 -1.7771200000 1.1847670000
H -2.1475570000 0.6847920000 1.5588190000
C -2.9064780000 -0.5863310000 -0.0244940000
H -0.3522660000 0.7050840000 -0.4016830000
H -3.8068370000 -0.9442970000 0.4866560000
H -3.1715560000 -0.4733370000 -1.0800180000
C 0.3968050000 -0.4660710000 -0.2738530000
C 2.1946140000 0.7569370000 1.1434790000
C 2.9655520000 0.3503310000 -0.1010620000
H 2.8384750000 0.7889840000 2.0221680000
H 1.7127800000 1.7269060000 1.0158720000
H 3.5426430000 1.1852640000 -0.4978140000
H 3.6358730000 -0.4821270000 0.1102640000
S 0.9083140000 -0.4932850000 1.4269820000
S 1.7708760000 -0.1770780000 -1.3814300000
S -1.4342590000 1.7917470000 -0.4632990000
