35
-1 1
S 3.7519510000 -1.7424220000 -0.6877280000
C 4.2458930000 -0.6994190000 0.7310820000
C 4.0651580000 0.8077480000 0.4988860000
H 5.3044710000 -0.8691590000 0.9405250000
H 3.6842150000 -0.9828700000 1.6224470000
N 4.9014070000 1.2630990000 -0.5979690000
C 2.5968840000 1.1677640000 0.3081150000
H 4.3676800000 1.3224250000 1.4230950000
O 2.1983340000 1.9116170000 -0.5709300000
O 1.7982620000 0.6347810000 1.2130130000
C 1.2660280000 -1.9134220000 -0.1807420000
O -0.5305970000 -1.9984260000 0.2286820000
H 1.2916360000 -2.9254520000 -0.5407460000
H 1.5912220000 -1.7107050000 0.8199140000
H 1.1808810000 -1.1077640000 -0.8831950000
C -1.2183010000 -0.9328950000 0.1759120000
C -2.6424140000 -0.9429270000 0.1026740000
N -0.6355590000 0.2922470000 0.1722840000
C -1.3678050000 1.4127030000 -0.0109420000
C -3.2646460000 0.2884930000 -0.0371430000
N -2.6916570000 1.4939890000 -0.1217910000
N -3.5799590000 -1.9594180000 0.1099790000
C -4.7220210000 -1.3550710000 -0.0136610000
N -4.6062170000 0.0183080000 -0.1153140000
H -5.6896980000 -1.8355140000 -0.0452100000
C -5.6583350000 0.9974570000 -0.2385870000
H -5.8629910000 1.4834870000 0.7183920000
H -6.5650970000 0.5065540000 -0.5923620000
H -5.3583260000 1.7616420000 -0.9552080000
N -0.6526910000 2.5739200000 -0.0626600000
H -1.1646250000 3.3765350000 -0.3867390000
H 0.3302870000 2.4971290000 -0.3190350000
H 0.8479010000 0.5841960000 0.8521330000
H 4.4861900000 2.0948450000 -1.0045110000
H 4.8471360000 0.5420400000 -1.3172270000
