25
-1 1
O 2.1417910000 0.6123210000 -0.9398100000
P 1.9645020000 -0.5778760000 -0.0178790000
O 2.8319740000 -1.7739160000 -0.0183480000
O 1.8834460000 0.0327790000 1.5086590000
O 0.3996890000 -1.0977110000 -0.2546790000
C -0.5405320000 -0.1991920000 -0.8090210000
C -1.0475430000 0.8444940000 0.2170700000
O -2.4742840000 0.7596850000 0.2008820000
C -2.8211310000 -0.5835980000 -0.1330910000
C -1.8094830000 -0.9556480000 -1.2160620000
H -2.1616510000 -0.6033960000 -2.1877250000
H -1.6053090000 -2.0239390000 -1.2806490000
H -0.0824210000 0.3014080000 -1.6639130000
H 1.6382760000 0.9676290000 1.4687820000
C -0.6420130000 2.2812410000 -0.0723370000
H -0.6696630000 0.5622030000 1.2048850000
O 0.7188630000 2.5236140000 0.2012310000
H -1.2288300000 2.9436140000 0.5685370000
H -0.8908590000 2.5211030000 -1.1159360000
H 1.2856900000 1.9399050000 -0.3724920000
C -2.7554340000 -1.4970420000 1.0837520000
H -3.8453380000 -0.5441620000 -0.5126180000
H -3.1224440000 -2.4941420000 0.8255370000
H -3.3719270000 -1.0960570000 1.8913130000
H -1.7280620000 -1.6017310000 1.4371130000
