34
0 2
N 1.7061480000 0.1751500000 -0.7721750000
S 1.3300460000 -1.2812170000 -0.0922720000
O -0.0875950000 -0.9842670000 0.5955690000
C -1.2076030000 -0.6862630000 -0.2658360000
C -2.3822330000 -0.3707590000 0.6342650000
H -1.4031750000 -1.5547320000 -0.8970320000
H -0.9464250000 0.1656400000 -0.8972220000
C -3.6261380000 -0.1104480000 -0.1393710000
H -2.1347170000 0.4908350000 1.2636580000
H -2.5205620000 -1.2159690000 1.3259140000
C -4.7788960000 0.5984280000 0.4770130000
H -3.7804600000 -0.6434810000 -1.0734520000
C 2.3922100000 1.2807620000 -0.0511590000
C 3.8516450000 0.9308680000 0.2477060000
C 1.6355510000 1.6047260000 1.2346370000
C 2.3218370000 2.4702640000 -1.0073930000
H 2.8314580000 2.2487910000 -1.9492470000
H 2.8129710000 3.3363830000 -0.5610960000
H 1.2854430000 2.7306470000 -1.2275330000
H 3.9185670000 0.0747220000 0.9171530000
H 4.3518530000 1.7815310000 0.7155990000
H 4.3860010000 0.6914430000 -0.6752540000
H 1.6628500000 0.7732480000 1.9382510000
H 0.5932280000 1.8467950000 1.0211110000
H 2.0992090000 2.4688860000 1.7132270000
O 2.1860410000 -1.6110790000 1.0169590000
O 1.1399740000 -2.1856540000 -1.2031900000
C -5.8998170000 0.9164290000 -0.5074130000
H -4.4259550000 1.5219000000 0.9543780000
H -5.1840480000 -0.0069430000 1.3044850000
H -5.5407180000 1.5602330000 -1.3134080000
H -6.7290510000 1.4260240000 -0.0134190000
H -6.2921930000 0.0027750000 -0.9604180000
H 2.0452520000 0.0186580000 -1.7135080000
