38
-1 1
N -3.3621270000 -1.6907860000 1.4554080000
C -2.2191460000 -1.1731490000 1.8867440000
N -1.6493360000 -0.2011740000 1.1225620000
C -2.5159610000 -0.0885200000 0.0863290000
C -3.5640540000 -0.9996680000 0.2904480000
C -4.5650270000 -1.0490660000 -0.6682630000
N -2.4662520000 0.7179480000 -0.9957350000
C -3.4818470000 0.5723680000 -1.8322220000
N -4.5228510000 -0.2635720000 -1.7295760000
C 0.7634930000 -0.3348560000 0.5911340000
C 1.2244580000 0.5351010000 1.7357910000
O 0.7475550000 0.2547810000 -0.5269720000
H 0.4628310000 -1.3650510000 0.6379970000
C 1.2486110000 1.9489320000 1.0814240000
C 1.3143990000 1.6277310000 -0.4138140000
C 0.5589330000 2.5098360000 -1.3800400000
H 2.3514680000 1.4934780000 -0.7369580000
O 2.7693340000 -1.4260340000 0.4286930000
P 3.8845460000 -1.0769320000 -0.5128640000
O 3.9669660000 0.2919100000 -1.1267650000
O 5.2668970000 -1.4302610000 0.2771440000
O 3.9368650000 -2.1642590000 -1.7449580000
O -0.7672630000 2.7869450000 -0.9936860000
H 0.5983650000 2.0441990000 -2.3708240000
H 1.0907620000 3.4629360000 -1.4419040000
H -1.3542120000 1.9783830000 -1.0810180000
O 0.1441280000 2.7123260000 1.4919770000
H 2.1595080000 2.4731320000 1.3776230000
H -0.4458370000 2.8482720000 0.7261000000
O 0.4636730000 0.4342990000 2.8889360000
H 2.2351260000 0.1984300000 1.9611870000
H -0.4275110000 0.7237060000 2.6355380000
H -1.7445920000 -1.5020290000 2.8024730000
H -3.4756180000 1.2104880000 -2.7102310000
H 6.0223310000 -1.0828850000 -0.2053300000
H 3.7772570000 -1.6939390000 -2.5675950000
O -5.6064430000 -1.8944290000 -0.5493310000
H -5.4709530000 -2.3865540000 0.2718090000
