23
0 1
C 2.5286160000 0.0083680000 0.0000610000
C 3.0895890000 -0.6163410000 -1.2659090000
C 1.0123320000 0.0142200000 0.0000180000
C 3.0895060000 -0.6161790000 1.2661500000
H 2.7100590000 -0.0922470000 -2.1434950000
H 2.8041140000 -1.6664760000 -1.3394320000
H 4.1782510000 -0.5502530000 -1.2564460000
C 0.3035150000 1.2106730000 -0.0000410000
C 0.3128990000 -1.1926650000 0.0000440000
H 2.8040040000 -1.6662970000 1.3397980000
H 2.7099330000 -0.0919570000 2.1436410000
H 4.1781700000 -0.5501130000 1.2567430000
C -1.0694680000 -1.2110240000 0.0000160000
C -1.7467060000 -0.0033360000 -0.0000450000
C -1.0826540000 1.2086630000 -0.0000750000
H 0.8424740000 2.1470150000 -0.0000620000
H -1.6491420000 2.1289190000 -0.0001250000
H 0.8478850000 -2.1341950000 0.0000880000
H -1.6258850000 -2.1372110000 0.0000400000
N -3.2190100000 -0.0128430000 -0.0000760000
O -3.7758740000 -1.0938370000 0.0000410000
O -3.7907180000 1.0597040000 -0.0002190000
F 2.9600190000 1.3512790000 -0.0000120000
