37
0 1
C -1.7079650000 1.0047650000 -0.5971390000
C -0.4742690000 -0.8483540000 0.7780630000
C -2.8234910000 1.0432220000 0.4731010000
H -2.6279340000 1.9056130000 1.1203090000
H -3.7945280000 1.2313790000 0.0001820000
H 0.4331580000 -1.1684620000 1.2987440000
H -1.6791160000 2.0000810000 -1.0552350000
H -0.1258250000 1.4082200000 1.1473040000
C -1.5966820000 -0.7932100000 1.8390180000
H -1.7740970000 -1.7974510000 2.2416100000
H -1.2321280000 -0.1857990000 2.6739620000
B -0.3818830000 0.6592390000 0.2232440000
C 1.0571450000 1.8825150000 -0.2908560000
C 1.1797580000 0.6998960000 -0.9163000000
H 0.7510280000 0.5486930000 -1.8975930000
C 1.1954200000 3.1252130000 0.0601830000
H 1.9450500000 3.7222290000 -0.4474000000
H 0.5923340000 3.5835960000 0.8295230000
C 2.2271340000 -0.2816680000 -0.5324390000
O 2.5475370000 -1.2110410000 -1.2245650000
O 2.7758070000 -0.0067910000 0.6536030000
C 3.7641540000 -0.9351670000 1.1106240000
H 4.5979570000 -0.9779050000 0.4105610000
H 4.0910070000 -0.5606160000 2.0765730000
H 3.3289700000 -1.9293120000 1.2110080000
C -0.7523320000 -1.8514570000 -0.3572230000
H 0.1562280000 -1.9617730000 -0.9546930000
H -0.9458770000 -2.8423480000 0.0704580000
C -1.9647190000 -0.0136330000 -1.7213880000
H -1.2228650000 0.1478960000 -2.5131410000
H -2.9337710000 0.1852110000 -2.1939400000
C -2.9365190000 -0.2147720000 1.3517050000
H -3.4882140000 -0.9845940000 0.8128030000
H -3.5527560000 0.0222740000 2.2245540000
C -1.9153830000 -1.4886880000 -1.2947750000
H -1.8474830000 -2.1123530000 -2.1913500000
H -2.8619860000 -1.7600900000 -0.8282050000
