17
0 2
C 2.3163350000 -1.0086000000 0.9188210000
S 1.9983800000 -0.3929770000 -0.7546580000
H 1.0470080000 0.7854620000 -0.3173500000
S -0.0871620000 1.6910520000 0.2786300000
C -1.4769740000 0.6989710000 -0.3421920000
C -1.7067530000 -0.6147250000 0.3906860000
C -2.9278410000 -1.3564840000 -0.1429160000
H -1.3357160000 0.5335260000 -1.4117810000
H -2.3462780000 1.3554200000 -0.2376090000
H -1.8210330000 -0.4130910000 1.4588530000
H -0.8182800000 -1.2413120000 0.2785900000
H -2.8158880000 -1.5890160000 -1.2049350000
H -3.8366920000 -0.7602510000 -0.0263940000
H -3.0782010000 -2.2980860000 0.3884200000
H 2.7631490000 -0.2385070000 1.5442860000
H 3.0263660000 -1.8306020000 0.8156020000
H 1.4074810000 -1.3877190000 1.3823780000
