20
0 2
N 0.6725920000 -1.5722150000 -0.4937940000
H 0.2627150000 -2.4995780000 -0.3992690000
C -0.2272890000 -0.5238040000 -0.1727360000
H 0.2793850000 0.0362330000 0.9417480000
C -0.2513390000 0.6034970000 -1.1983540000
C -1.5366630000 -1.1585070000 0.2619430000
H 0.7618900000 0.7922190000 -1.5421270000
H -0.8403880000 0.2852190000 -2.0624130000
S -0.9824020000 2.1874750000 -0.6606790000
O -1.6258290000 -2.3747450000 0.3202390000
H -0.0031880000 2.4999530000 0.2088640000
N -2.5397390000 -0.3224960000 0.5740050000
H -3.4078550000 -0.7251970000 0.8893250000
H -2.4207120000 0.6814330000 0.5304600000
C 2.0123100000 -1.4546180000 -0.6219320000
H 2.5023390000 -2.4120470000 -0.8474590000
O 2.6468340000 -0.4196430000 -0.5163030000
O 0.9505180000 0.5188580000 1.7901050000
O 1.6950610000 1.5031740000 1.1612270000
H 2.3394760000 0.9845860000 0.6345880000
