13
0 1
C 2.2841590000 0.0056560000 -0.0005080000
C 1.5864650000 -1.1945510000 0.0011670000
C 0.2002800000 -1.2024670000 0.0037720000
C -0.5041420000 -0.0012770000 0.0020970000
C 0.1932730000 1.2029660000 -0.0027240000
C 1.5805060000 1.2014880000 -0.0012930000
S -2.2792570000 -0.0830090000 -0.0062480000
H 3.3668370000 0.0086670000 -0.0007800000
H 2.1234460000 -2.1354600000 0.0024920000
H -0.3360950000 -2.1439500000 0.0094230000
H -0.3425560000 2.1445700000 -0.0075420000
H 2.1123890000 2.1453700000 -0.0029530000
H -2.4991560000 1.2380560000 0.0842720000
