18
1 1
C 2.2360180000 0.4979160000 -0.0000130000
C 0.8518150000 0.2878370000 -0.0000060000
C 0.2931980000 -1.0111240000 0.0000110000
C 0.0074480000 1.4192720000 -0.0000160000
C -1.0670000000 -1.1661910000 0.0000180000
H 0.9430990000 -1.8765440000 0.0000180000
C -1.3563920000 1.2625670000 -0.0000090000
H 0.4346200000 2.4154410000 -0.0000300000
C -1.8877630000 -0.0291190000 0.0000100000
H -1.5175080000 -2.1493120000 0.0000300000
H -2.0186260000 2.1172360000 -0.0000170000
O 3.0652890000 -0.4664910000 -0.0000100000
C 4.5003000000 -0.2248250000 -0.0000100000
H 4.6972470000 0.8465120000 -0.0000760000
H 4.8942210000 -0.7000140000 0.8942870000
H 4.8942350000 -0.7001250000 -0.8942420000
Cl -3.5853310000 -0.2325330000 0.0000140000
H 2.6352710000 1.5137970000 -0.0000260000
