17
0 2
C -1.0152920000 0.2734270000 -1.8203160000
H -1.9906100000 0.7455350000 -1.9729160000
H -0.2532490000 0.9248440000 -2.2525710000
H -1.0059320000 -0.6668220000 -2.3750860000
C -1.9117300000 -1.2239860000 0.7496690000
H -1.8955920000 -2.1793870000 0.2214320000
H -1.6862050000 -1.4168600000 1.8004220000
H -2.9302420000 -0.8277370000 0.6929020000
C -0.6502080000 1.6019380000 0.9556330000
H -1.6192140000 2.1076440000 0.9032210000
H -0.4184470000 1.4352420000 2.0097950000
H 0.1014040000 2.2795670000 0.5453390000
Si -0.6939880000 -0.0116960000 0.0016100000
H 0.8402000000 -0.6502550000 0.1194040000
O 2.0894180000 -0.9635290000 0.1620560000
O 2.7856130000 0.2086700000 -0.1324990000
H 3.0368530000 0.5425670000 0.7391560000
