29
0 1
P -0.0000050000 -0.0344070000 -0.4914960000
O -0.0000240000 -0.2744130000 -1.9566790000
N -1.3992640000 -0.6519000000 0.1944650000
N 0.0000730000 1.5370300000 0.0953000000
N 1.3992050000 -0.6520280000 0.1944500000
C 1.6827580000 -0.5760710000 1.6147860000
H 1.3702420000 -1.4820380000 2.1501400000
H 2.7596590000 -0.4522860000 1.7673830000
H 1.1806480000 0.2819030000 2.0583270000
C 2.1332700000 -1.6909440000 -0.5106380000
H 3.2087600000 -1.5218580000 -0.3973320000
H 1.9022310000 -2.6903930000 -0.1193180000
H 1.8817900000 -1.6579400000 -1.5680890000
C -2.1334620000 -1.6907140000 -0.5106350000
H -1.8820050000 -1.6577060000 -1.5680920000
H -1.9025200000 -2.6902000000 -0.1193530000
H -3.2089290000 -1.5215140000 -0.3972940000
C -1.6827590000 -0.5759610000 1.6148130000
C -1.2096180000 2.3362330000 -0.0657130000
H -1.2268830000 3.1203030000 0.6959380000
H -1.2512980000 2.8120550000 -1.0528540000
H -2.0931900000 1.7137510000 0.0534970000
C 1.2098290000 2.3361260000 -0.0657640000
H 1.2515050000 2.8119510000 -1.0529030000
H 1.2272010000 3.1201890000 0.6958920000
H 2.0933510000 1.7135630000 0.0533990000
H -1.1805550000 0.2819530000 2.0583630000
H -1.3703090000 -1.4819730000 2.1501270000
H -2.7596440000 -0.4520790000 1.7674510000
