21
0 1
C 2.5848520000 -0.9753950000 0.0505370000
C -2.3461850000 1.7200280000 -0.1995570000
C -1.1683880000 1.1194040000 -0.2084400000
C -1.0290910000 -0.2705730000 0.3565790000
C 0.1553240000 -1.0213190000 -0.2695080000
C 1.4574440000 -0.2858210000 -0.0640930000
C 0.1061350000 1.7317920000 -0.7471200000
F -2.1584400000 -1.0002900000 0.2068320000
F 0.2006490000 -2.2819640000 0.2120980000
C 1.3361040000 1.1911930000 -0.0569830000
C 2.2132330000 1.9831780000 0.5496570000
F -0.1128280000 -1.1252210000 -1.6127310000
F -0.7827110000 -0.2071420000 1.7032610000
H 2.0940380000 3.0593820000 0.5374360000
H 3.0654720000 1.5877460000 1.0873350000
H 0.0636770000 2.8161370000 -0.6542160000
H 0.1710460000 1.4957130000 -1.8153030000
H 3.5418530000 -0.4756790000 0.1237660000
H 2.5784240000 -2.0567140000 0.0708340000
H -2.4584850000 2.7339750000 -0.5642350000
H -3.2326320000 1.2160730000 0.1628070000
