14
0 1
C 0.6252780083 2.8980962796 -0.0393604548
C -0.3425538828 1.7374537000 -0.0315010018
N 0.3613884331 0.4799843373 0.0140397505
C -0.2254264535 -0.7281287082 0.0951508455
N -1.5656272224 -0.7382898867 -0.0725709014
S 0.6429302027 -2.1195582043 0.3539603917
H -2.1158731649 0.0976519010 -0.0387531783
H -2.0221602955 -1.6165419211 0.0707690258
H 1.3438842855 0.4774478642 0.2151175506
H -0.9642897112 1.7725046914 -0.9274873639
H -1.0098715228 1.8268441893 0.8310916029
H 1.2935169074 2.8422575070 -0.8945369454
H 0.0794140383 3.8351619261 -0.0921761842
H 1.2290593778 2.9082293244 0.8652298627
