16
0 1
C -1.4452769000 -0.8945789000 -0.6530359000
C -2.8286860000 -0.8908769000 -0.3684307000
C -3.1375070000 -0.1063297000 0.6981435000
S -1.7527144000 0.6275104000 1.3600308000
C -0.7193656000 -0.1162480000 0.2025179000
C 0.7193656000 0.1162480000 0.2025179000
S 1.7527144000 -0.6275104000 1.3600308000
C 3.1375070000 0.1063297000 0.6981435000
C 2.8286860000 0.8908769000 -0.3684307000
C 1.4452769000 0.8945789000 -0.6530359000
H -0.9873115000 -1.4593053000 -1.4471042000
H -3.5595255000 -1.4521636000 -0.9249949000
H -4.1032541000 0.0746008000 1.1328736000
H 4.1032541000 -0.0746008000 1.1328736000
H 3.5595255000 1.4521636000 -0.9249949000
H 0.9873115000 1.4593053000 -1.4471042000
