16
0 1
C -1.4595330000 -1.1910594000 0.1600327000
C -2.8488073000 -0.9628516000 0.0993153000
C -3.1539559000 0.3260872000 -0.2060017000
S -1.7497644000 1.2592017000 -0.4444530000
C -0.7185117000 -0.0716168000 -0.1000887000
C 0.7185117000 0.0716168000 -0.1000887000
S 1.7497644000 -1.2592017000 -0.4444530000
C 3.1539559000 -0.3260872000 -0.2060017000
C 2.8488073000 0.9628516000 0.0993153000
C 1.4595330000 1.1910594000 0.1600327000
H -1.0099655000 -2.1339875000 0.4228504000
H -3.5907346000 -1.7189217000 0.2898715000
H -4.1235319000 0.7747989000 -0.3122418000
H 4.1235319000 -0.7747989000 -0.3122418000
H 3.5907346000 1.7189217000 0.2898715000
H 1.0099655000 2.1339875000 0.4228504000
