23
0 1
C 16.6480000000 9.3540000000 77.8060000000
C 16.9550000000 9.9930000000 79.1470000000
C 16.1100000000 9.3410000000 80.2430000000
O 16.3440000000 10.0270000000 81.4920000000
H 15.9300000000 10.7580000000 81.4920000000
H 16.3700000000 8.4100000000 80.3250000000
C 14.6210000000 9.3800000000 79.8910000000
S 13.7060000000 8.4030000000 81.0800000000
H 13.2276600000 9.1070700000 81.9306600000
H 14.2930000000 10.2920000000 79.9200000000
C 14.4260000000 8.8270000000 78.4740000000
H 14.6610000000 7.8870000000 78.5190000000
C 12.9800000000 8.9950000000 77.9890000000
H 12.3690000000 8.5870000000 78.6220000000
O 12.6740000000 10.3850000000 77.8410000000
H 11.8550000000 10.5080000000 77.9810000000
H 12.8590000000 8.5370000000 77.1420000000
O 18.3520000000 9.8320000000 79.4500000000
H 18.4680000000 9.1090000000 79.8620000000
H 16.7420000000 10.9380000000 79.1050000000
H 16.8784600000 8.2681100000 77.8511800000
O 15.2530000000 9.5360000000 77.5330000000
H 17.2547900000 9.8361800000 77.0099900000
