17
0 1
C -0.0923972000 -0.0908210000 -0.5581819000
C 0.0818928000 0.6858239000 1.5586069000
C 0.0601558000 -0.6594710000 1.6265329000
N -0.0316562000 -1.1070769000 0.3268670000
N 0.0035018000 1.0028629000 0.2223020000
H 0.1463878000 1.4253789000 2.3407929000
H 0.1031438000 -1.3172889000 2.4804999000
C -0.0663492000 -2.5007778000 -0.0448429000
C 0.0139618000 2.3496258000 -0.2972709000
H 0.8207238000 -3.0243948000 0.3146510000
H -0.9500261000 -2.9923398000 0.3640480000
H -0.0958352000 -2.5649238000 -1.1285209000
H -0.8505351000 2.9081768000 0.0610721000
H 0.9239828000 2.8713418000 -0.0011019000
H -0.0215252000 2.3044198000 -1.3827728000
Cl 0.0846578000 0.5258920000 -3.5883607000
H -0.1300842000 0.1835720000 -2.2943208000
