10
0 1
N -2.4871659000 0.1746169000 -0.1204509000
H -1.4936065000 0.1249013000 -0.3221195000
H -2.7954866000 1.0883668000 -0.4234370000
H -2.9392636000 -0.4917072000 -0.7308413000
C 0.8901512000 -0.0150136000 -0.5370216000
Cl 1.9304756000 -0.1698160000 -1.8814132000
C 1.6355809000 -0.1305061000 0.7280366000
H 2.7276874000 -0.1356677000 0.7079582000
H 1.2560340000 0.6291129000 1.4170683000
H 1.2755937000 -1.0742873000 1.1622204000
