17
0 1
C 30.1245000000 -21.0942000000 -0.0078000000
H 30.7007000000 -20.1735000000 -0.0001000000
C 28.7275000000 -21.0797000000 0.0015000000
H 28.1829000000 -20.1396000000 0.0076000000
C 28.0511000000 -22.3022000000 0.0072000000
H 26.9660000000 -22.3462000000 0.0161000000
C 28.8021000000 -23.4837000000 0.0018000000
H 28.3063000000 -24.4523000000 0.0028000000
N 30.1454000000 -23.5178000000 -0.0081000000
C 30.7853000000 -22.3311000000 -0.0075000000
N 32.9824000000 -22.5959000000 1.1016000000
C 34.3159000000 -22.6160000000 0.7918000000
H 35.0444000000 -22.7770000000 1.5781000000
C 34.6250000000 -22.4198000000 -0.5396000000
H 35.6004000000 -22.3972000000 -1.0074000000
S 33.1869000000 -22.2068000000 -1.4402000000
C 32.2643000000 -22.3859000000 0.0130000000
