18
0 1
C 30.1839000000 -8.3557000000 0.0077000000
H 30.7517000000 -7.4301000000 0.0389000000
C 28.7885000000 -8.3437000000 -0.0049000000
H 28.2447000000 -7.4029000000 -0.0038000000
C 28.1099000000 -9.5655000000 -0.0051000000
H 27.0249000000 -9.6102000000 -0.0123000000
C 28.8640000000 -10.7440000000 0.0058000000
H 28.3701000000 -11.7138000000 0.0076000000
N 30.2074000000 -10.7771000000 -0.0030000000
C 30.8559000000 -9.5914000000 0.0070000000
C 33.1403000000 -10.4085000000 0.8221000000
H 32.7330000000 -11.1110000000 1.5411000000
C 34.5191000000 -10.1623000000 0.6069000000
H 35.3234000000 -10.6528000000 1.1443000000
C 34.7372000000 -9.2030000000 -0.3669000000
H 35.6824000000 -8.8361000000 -0.7463000000
S 33.2637000000 -8.6221000000 -1.0226000000
C 32.3243000000 -9.6521000000 -0.0075000000
