14
0 1
C 2.0288000000 -24.6278000000 -0.9033000000
H 0.9847000000 -24.6433000000 -1.1875000000
C 2.8202000000 -25.6824000000 -0.4806000000
H 2.4818000000 -26.7065000000 -0.3750000000
N 4.1173000000 -25.3688000000 -0.1980000000
C 4.3077000000 -24.0786000000 -0.3941000000
S 2.9476000000 -23.1896000000 -0.9689000000
S 5.9004000000 -23.2837000000 -0.2137000000
C 5.7840000000 -22.5452000000 1.4042000000
H 4.9596000000 -21.8317000000 1.4074000000
H 6.7336000000 -22.0322000000 1.5728000000
H 5.6403000000 -23.3362000000 2.1418000000
O 5.9014000000 -22.1961000000 -1.1880000000
O 6.9303000000 -24.3044000000 -0.1903000000
