18
0 1
C 21.7990000000 -23.5707000000 0.0104000000
H 22.3175000000 -24.5271000000 0.0118000000
C 20.4016000000 -23.5523000000 -0.0070000000
H 19.8521000000 -24.4897000000 0.0094000000
C 19.7127000000 -22.3337000000 0.0096000000
H 18.6262000000 -22.3198000000 0.0057000000
C 20.4350000000 -21.1330000000 -0.0020000000
H 19.9084000000 -20.1823000000 0.0145000000
C 21.8315000000 -21.1458000000 0.0054000000
H 22.4003000000 -20.2209000000 0.0000000000
C 22.5280000000 -22.3686000000 -0.0323000000
N 24.7152000000 -21.2447000000 0.0936000000
C 26.0506000000 -21.5238000000 0.0415000000
H 26.7707000000 -20.7164000000 0.1108000000
C 26.3760000000 -22.8583000000 -0.0964000000
H 27.3573000000 -23.3108000000 -0.1473000000
S 24.9508000000 -23.7987000000 -0.1633000000
C 23.9966000000 -22.3544000000 0.0157000000
