14
0 1
O 21.6404000000 -3.9858000000 -0.0000000000
C 20.8734000000 -6.2627000000 0.0009000000
H 20.9819000000 -6.8966000000 -0.8844000000
H 19.8879000000 -5.7958000000 0.0012000000
H 20.9828000000 -6.8965000000 0.8860000000
C 21.9300000000 -5.1769000000 0.0002000000
C 23.8557000000 -6.9098000000 -0.0000000000
H 23.2314000000 -7.7968000000 -0.0001000000
C 25.2687000000 -6.9305000000 0.0000000000
H 25.8738000000 -7.8303000000 0.0002000000
C 25.8042000000 -5.6516000000 0.0001000000
H 26.8508000000 -5.3733000000 0.0001000000
S 24.5992000000 -4.4407000000 -0.0001000000
C 23.3404000000 -5.6154000000 -0.0002000000
