14
0 1
C -0.1442000000 0.0058000000 0.1879000000
H 0.1804000000 -0.6016000000 -0.6628000000
H 0.0479000000 -0.5658000000 1.1013000000
C 0.6018000000 1.3397000000 0.2166000000
H 0.2427000000 1.9353000000 1.0616000000
H 0.3730000000 1.9005000000 -0.6950000000
C 2.1112000000 1.1272000000 0.3328000000
H 2.3588000000 0.5831000000 1.2496000000
H 2.4900000000 0.5497000000 -0.5163000000
H 2.6404000000 2.0835000000 0.3539000000
C -1.6352000000 0.1627000000 0.0727000000
F -2.1499000000 0.8574000000 1.1077000000
F -2.2596000000 -1.0320000000 0.0494000000
F -1.9877000000 0.8151000000 -1.0535000000
