16
0 1
C 28.8690000000 -3.8014000000 -0.8047000000
N 29.4363000000 -4.7347000000 0.0530000000
H 28.9443000000 -4.8257000000 0.9355000000
C 31.0776000000 -6.6018000000 0.0028000000
H 30.3283000000 -7.3861000000 -0.0105000000
C 32.4803000000 -6.8075000000 0.0314000000
H 32.9582000000 -7.7805000000 0.0301000000
C 33.1880000000 -5.6195000000 0.0320000000
H 34.2613000000 -5.4830000000 0.0033000000
S 32.1498000000 -4.2561000000 0.0337000000
C 30.7361000000 -5.2602000000 -0.0320000000
O 27.8271000000 -3.2392000000 -0.5054000000
C 29.5959000000 -3.5667000000 -2.1113000000
H 30.1038000000 -4.4663000000 -2.4649000000
H 28.8610000000 -3.2294000000 -2.8427000000
H 30.3433000000 -2.7786000000 -1.9829000000
