14
0 1
C 2.0284000000 -24.6412000000 -0.9227000000
H 0.9835000000 -24.6635000000 -1.2030000000
C 2.8295000000 -25.6825000000 -0.4916000000
H 2.5025000000 -26.7102000000 -0.3855000000
N 4.1175000000 -25.3509000000 -0.1844000000
C 4.2959000000 -24.0589000000 -0.3680000000
S 2.9274000000 -23.1878000000 -0.9589000000
S 5.9233000000 -23.3095000000 -0.2329000000
C 5.5637000000 -21.7795000000 0.6082000000
H 4.9183000000 -21.1583000000 -0.0138000000
H 6.5295000000 -21.2890000000 0.7494000000
H 5.1076000000 -22.0023000000 1.5734000000
O 6.3596000000 -22.9753000000 -1.5831000000
O 6.7250000000 -24.1397000000 0.6463000000
