13
0 1
C -1.1185000000 -1.3992000000 -0.6208000000
H -0.8752000000 -0.7947000000 0.2523000000
H -0.4289000000 -1.2024000000 -1.4413000000
H -2.1489000000 -1.2271000000 -0.9353000000
S -0.9965000000 -3.1148000000 -0.1740000000
O -1.8003000000 -3.3123000000 1.0236000000
N 0.6179000000 -3.2445000000 0.2736000000
H 0.6468000000 -3.4232000000 1.2736000000
O -1.2049000000 -3.9032000000 -1.3786000000
C 1.4490000000 -4.1911000000 -0.4868000000
H 1.0939000000 -5.2235000000 -0.4245000000
H 1.4699000000 -3.8919000000 -1.5344000000
H 2.4616000000 -4.1255000000 -0.0846000000
