23
0 1
C 3.8138000000 -2.3669000000 0.2776000000
H 4.5905000000 -2.2262000000 1.0241000000
C 2.6656000000 -1.5667000000 0.3131000000
H 2.5243000000 -0.8066000000 1.0757000000
C 1.6781000000 -1.7657000000 -0.6561000000
S 0.2567000000 -0.6958000000 -0.6604000000
N -0.9651000000 -1.8558000000 -0.7224000000
C -1.1198000000 -2.5704000000 0.5510000000
H -0.1453000000 -2.9253000000 0.8960000000
H -1.5644000000 -1.9360000000 1.3289000000
H -1.7599000000 -3.4375000000 0.3704000000
C -2.2416000000 -1.3158000000 -1.2156000000
H -2.0888000000 -0.8415000000 -2.1845000000
H -2.9231000000 -2.1617000000 -1.3314000000
H -2.6849000000 -0.5932000000 -0.5165000000
C 1.8126000000 -2.7319000000 -1.6604000000
H 1.0272000000 -2.8559000000 -2.4000000000
C 2.9613000000 -3.5279000000 -1.6780000000
H 3.0784000000 -4.2863000000 -2.4472000000
C 3.9607000000 -3.3465000000 -0.7116000000
H 4.8524000000 -3.9670000000 -0.7321000000
O 0.2480000000 0.0310000000 0.6063000000
O 0.1906000000 0.0336000000 -1.9180000000
