23
0 1
C 3.4972000000 -2.7870000000 -1.9600000000
H 3.9524000000 -3.0537000000 -2.9100000000
C 2.3517000000 -1.9836000000 -1.9427000000
H 1.9149000000 -1.6043000000 -2.8619000000
C 1.7844000000 -1.6384000000 -0.7095000000
S 0.2793000000 -0.6856000000 -0.6782000000
N -0.9519000000 -1.8206000000 -0.6861000000
C -1.0657000000 -2.6084000000 -1.9166000000
H -1.0123000000 -1.9472000000 -2.7817000000
H -0.2834000000 -3.3800000000 -1.9856000000
H -2.0433000000 -3.0970000000 -1.9062000000
C -1.0519000000 -2.6456000000 0.5206000000
H -0.9820000000 -2.0122000000 1.4049000000
H -2.0326000000 -3.1281000000 0.5096000000
H -0.2736000000 -3.4235000000 0.5538000000
C 2.3487000000 -2.0656000000 0.4999000000
H 1.9119000000 -1.7468000000 1.4418000000
C 3.4939000000 -2.8686000000 0.4662000000
H 3.9466000000 -3.1987000000 1.3972000000
C 4.0653000000 -3.2328000000 -0.7598000000
H 4.9572000000 -3.8531000000 -0.7795000000
O 0.2135000000 -0.0128000000 0.6073000000
O 0.1895000000 0.0319000000 -1.9375000000
