18
0 1
C 30.1792000000 -8.3530000000 -0.0021000000
H 30.7313000000 -7.4172000000 -0.0109000000
C 28.7847000000 -8.3457000000 0.0015000000
H 28.2404000000 -7.4052000000 -0.0069000000
C 28.1074000000 -9.5681000000 -0.0047000000
H 27.0228000000 -9.6160000000 -0.0089000000
C 28.8677000000 -10.7428000000 -0.0047000000
H 28.3781000000 -11.7150000000 -0.0153000000
N 30.2087000000 -10.7689000000 0.0041000000
C 30.8606000000 -9.5844000000 0.0213000000
C 33.0903000000 -10.8269000000 -0.0649000000
H 32.6322000000 -11.8036000000 -0.1674000000
C 34.4799000000 -10.5732000000 0.0244000000
H 35.2479000000 -11.3380000000 -0.0148000000
C 34.7635000000 -9.2265000000 0.1688000000
H 35.7313000000 -8.7472000000 0.2434000000
S 33.3358000000 -8.2792000000 0.1907000000
C 32.3258000000 -9.6666000000 -0.0153000000
