17
0 1
C 30.1279000000 -21.0904000000 -0.0102000000
H 30.7126000000 -20.1760000000 -0.0111000000
C 28.7335000000 -21.0815000000 0.0068000000
H 28.1879000000 -20.1417000000 0.0112000000
C 28.0526000000 -22.3043000000 0.0053000000
H 26.9676000000 -22.3465000000 0.0148000000
C 28.8018000000 -23.4855000000 -0.0022000000
H 28.3068000000 -24.4546000000 0.0017000000
N 30.1450000000 -23.5175000000 -0.0013000000
C 30.7867000000 -22.3311000000 -0.0120000000
N 33.0145000000 -21.4475000000 0.5606000000
C 34.3294000000 -21.8088000000 0.4867000000
H 35.0898000000 -21.1507000000 0.8917000000
C 34.5770000000 -23.0342000000 -0.1042000000
H 35.5313000000 -23.5175000000 -0.2673000000
S 33.1075000000 -23.7637000000 -0.5842000000
C 32.2527000000 -22.3844000000 0.0136000000
