14
0 1
C -0.1296000000 -0.0844000000 -0.0840000000
H -0.2180000000 0.4126000000 -1.0564000000
H -0.2283000000 0.6822000000 0.6928000000
C 1.2179000000 -0.7961000000 0.0393000000
H 1.3000000000 -1.5502000000 -0.7494000000
H 1.2600000000 -1.3291000000 0.9973000000
C 2.3866000000 0.1850000000 -0.0537000000
H 2.3703000000 0.7156000000 -1.0107000000
H 3.3454000000 -0.3342000000 0.0289000000
H 2.3347000000 0.9304000000 0.7463000000
C -1.2981000000 -1.0233000000 0.0536000000
H -1.3260000000 -1.5662000000 1.0019000000
F -1.2779000000 -1.9545000000 -0.9516000000
F -2.4763000000 -0.3349000000 -0.0647000000
