13
0 1
O 21.2594000000 -18.3496000000 0.6879000000
C 21.6588000000 -16.7218000000 -1.0413000000
H 22.1963000000 -15.7820000000 -0.8738000000
H 20.5838000000 -16.5469000000 -0.9862000000
H 21.9337000000 -17.0803000000 -2.0383000000
C 22.0581000000 -17.7614000000 -0.0187000000
N 23.9508000000 -19.3652000000 0.0025000000
C 25.3151000000 -19.3907000000 -0.0082000000
H 25.8326000000 -20.3429000000 -0.0260000000
C 25.9395000000 -18.1571000000 -0.0027000000
H 26.9988000000 -17.9383000000 0.0170000000
S 24.7677000000 -16.9156000000 -0.0005000000
C 23.5175000000 -18.1154000000 0.0276000000
