15
0 1
C 28.8808000000 -16.0154000000 -1.0136000000
N 29.3081000000 -16.8665000000 0.0120000000
H 28.6044000000 -17.4957000000 0.3825000000
N 30.7404000000 -18.7663000000 -0.0105000000
C 32.0784000000 -19.0649000000 0.0086000000
H 32.3924000000 -20.1018000000 0.0068000000
C 32.9304000000 -17.9820000000 0.0051000000
H 34.0114000000 -17.9770000000 -0.0257000000
S 32.0277000000 -16.5245000000 -0.0086000000
C 30.5794000000 -17.4588000000 -0.0067000000
O 29.6614000000 -15.4200000000 -1.7332000000
C 27.3760000000 -15.8908000000 -1.1083000000
H 26.9104000000 -15.8913000000 -0.1196000000
H 26.9841000000 -16.7392000000 -1.6783000000
H 27.1294000000 -14.9693000000 -1.6348000000
