14
0 1
C 2.0280000000 -24.6253000000 -0.8948000000
H 0.9752000000 -24.6342000000 -1.1455000000
C 2.8162000000 -25.6792000000 -0.4630000000
H 2.4665000000 -26.6944000000 -0.3162000000
N 4.1191000000 -25.3704000000 -0.2036000000
C 4.3199000000 -24.0892000000 -0.4446000000
S 2.9480000000 -23.1886000000 -0.9681000000
S 5.8908000000 -23.2781000000 -0.1846000000
C 6.6936000000 -23.4851000000 -1.7614000000
H 6.0923000000 -22.9951000000 -2.5279000000
H 7.6690000000 -23.0014000000 -1.6730000000
H 6.8102000000 -24.5522000000 -1.9559000000
O 5.5699000000 -21.8613000000 -0.0339000000
O 6.6375000000 -24.0122000000 0.8193000000
