15
0 1
C 28.4559000000 -16.8332000000 -1.1058000000
N 29.3139000000 -16.8435000000 -0.0088000000
H 28.9080000000 -16.5155000000 0.8595000000
N 30.7473000000 -18.7772000000 0.0042000000
C 32.0836000000 -19.0649000000 -0.0067000000
H 32.4071000000 -20.0992000000 -0.0083000000
C 32.9341000000 -17.9758000000 0.0003000000
H 34.0159000000 -17.9712000000 0.0162000000
S 32.0222000000 -16.5312000000 0.0001000000
C 30.5631000000 -17.4704000000 0.0109000000
O 27.3354000000 -16.3639000000 -1.0083000000
C 29.0226000000 -17.4278000000 -2.3747000000
H 30.0035000000 -17.0033000000 -2.6065000000
H 28.3265000000 -17.2229000000 -3.1871000000
H 29.1464000000 -18.5069000000 -2.2526000000
