17
0 1
C 30.1281000000 -21.0937000000 -0.0147000000
H 30.7116000000 -20.1782000000 -0.0138000000
C 28.7334000000 -21.0805000000 0.0084000000
H 28.1892000000 -20.1400000000 0.0184000000
C 28.0525000000 -22.3028000000 0.0113000000
H 26.9675000000 -22.3443000000 0.0277000000
C 28.8005000000 -23.4848000000 0.0002000000
H 28.3045000000 -24.4532000000 0.0105000000
N 30.1444000000 -23.5199000000 -0.0066000000
C 30.7860000000 -22.3340000000 -0.0270000000
N 32.9760000000 -21.6601000000 0.8764000000
C 34.2983000000 -21.9883000000 0.7660000000
H 35.0284000000 -21.4866000000 1.3908000000
C 34.5918000000 -22.9776000000 -0.1538000000
H 35.5590000000 -23.3903000000 -0.4081000000
S 33.1559000000 -23.5213000000 -0.9046000000
C 32.2553000000 -22.3790000000 0.0285000000
