15
0 1
C 28.5854000000 -16.5041000000 -1.1358000000
N 29.3128000000 -16.8423000000 0.0047000000
H 28.7561000000 -16.9216000000 0.8482000000
N 30.7477000000 -18.7775000000 0.0011000000
C 32.0840000000 -19.0652000000 0.0046000000
H 32.4077000000 -20.0994000000 0.0080000000
C 32.9342000000 -17.9757000000 -0.0052000000
H 34.0160000000 -17.9701000000 -0.0194000000
S 32.0216000000 -16.5319000000 0.0071000000
C 30.5640000000 -17.4704000000 -0.0124000000
O 27.4296000000 -16.1306000000 -1.0422000000
C 29.3373000000 -16.6124000000 -2.4438000000
H 30.1263000000 -15.8561000000 -2.4925000000
H 28.6304000000 -16.4474000000 -3.2560000000
H 29.8037000000 -17.5959000000 -2.5440000000
