14
0 1
C -0.1412000000 0.0053000000 0.1881000000
H 0.0735000000 -0.5598000000 1.0992000000
H 0.2031000000 -0.5947000000 -0.6584000000
C 0.6010000000 1.3429000000 0.2165000000
H 0.3730000000 1.9072000000 -0.6928000000
H 0.2431000000 1.9416000000 1.0595000000
C 2.1090000000 1.1246000000 0.3327000000
H 2.4858000000 0.5433000000 -0.5149000000
H 2.3554000000 0.5814000000 1.2506000000
H 2.6420000000 2.0788000000 0.3515000000
C -1.6547000000 0.1253000000 0.0739000000
F -2.1230000000 -0.4848000000 -1.0354000000
F -2.2834000000 -0.4428000000 1.1242000000
F -2.0812000000 1.4024000000 0.0169000000
