18
0 1
C 21.8286000000 -21.1406000000 -0.0049000000
H 22.3917000000 -20.2108000000 0.0044000000
C 20.4301000000 -21.1290000000 0.0032000000
H 19.8975000000 -20.1817000000 0.0131000000
C 19.7173000000 -22.3349000000 0.0060000000
H 18.6308000000 -22.3243000000 0.0129000000
C 20.4061000000 -23.5541000000 0.0020000000
H 19.8553000000 -24.4909000000 0.0151000000
C 21.8051000000 -23.5697000000 -0.0036000000
H 22.3472000000 -24.5123000000 0.0091000000
C 22.5210000000 -22.3620000000 -0.0202000000
N 24.7185000000 -22.1510000000 1.1036000000
C 26.0542000000 -22.2436000000 0.8142000000
H 26.7827000000 -22.0904000000 1.6023000000
C 26.3650000000 -22.5398000000 -0.4980000000
H 27.3422000000 -22.6582000000 -0.9470000000
S 24.9254000000 -22.7015000000 -1.4078000000
C 23.9961000000 -22.3681000000 0.0176000000
