19
0 1
C 21.7692000000 -10.9442000000 -0.0045000000
H 22.2917000000 -11.8978000000 -0.0271000000
C 20.3716000000 -10.9317000000 0.0058000000
H 19.8265000000 -11.8718000000 -0.0111000000
C 19.6772000000 -9.7162000000 -0.0127000000
H 18.5907000000 -9.7050000000 -0.0158000000
C 20.3965000000 -8.5146000000 -0.0037000000
H 19.8696000000 -7.5640000000 -0.0155000000
C 21.7938000000 -8.5267000000 0.0051000000
H 22.3364000000 -7.5859000000 0.0396000000
C 22.5048000000 -9.7429000000 0.0350000000
C 24.8296000000 -8.6893000000 -0.3016000000
H 24.4778000000 -7.7203000000 -0.6384000000
C 26.1979000000 -9.0227000000 -0.1496000000
H 27.0207000000 -8.3439000000 -0.3454000000
C 26.3765000000 -10.3291000000 0.2687000000
H 27.3055000000 -10.8548000000 0.4484000000
S 24.8798000000 -11.1343000000 0.4782000000
C 23.9713000000 -9.7494000000 -0.0251000000
