14
0 1
O 21.0492000000 -5.9629000000 0.4093000000
C 21.5730000000 -3.9908000000 -0.8596000000
H 22.0999000000 -3.1111000000 -0.4747000000
H 20.4964000000 -3.8185000000 -0.8306000000
H 21.9010000000 -4.1419000000 -1.8928000000
C 21.9096000000 -5.2252000000 -0.0511000000
C 23.8426000000 -6.8859000000 0.0110000000
H 23.1852000000 -7.7484000000 0.0035000000
C 25.2554000000 -6.9279000000 -0.0184000000
H 25.8451000000 -7.8375000000 -0.0476000000
C 25.8185000000 -5.6621000000 -0.0178000000
H 26.8682000000 -5.3975000000 -0.0033000000
S 24.6264000000 -4.4356000000 0.0118000000
C 23.3457000000 -5.5883000000 0.0644000000
