15
0 1
C 29.0229000000 -15.5453000000 0.0014000000
N 29.3072000000 -16.8933000000 -0.0001000000
H 28.5601000000 -17.5754000000 0.0214000000
N 30.7341000000 -18.7555000000 -0.0007000000
C 32.0712000000 -19.0643000000 0.0002000000
H 32.3744000000 -20.1045000000 -0.0004000000
C 32.9267000000 -17.9882000000 0.0003000000
H 34.0084000000 -17.9899000000 -0.0010000000
S 32.0406000000 -16.5140000000 -0.0007000000
C 30.5845000000 -17.4477000000 0.0010000000
O 29.9084000000 -14.7011000000 -0.0235000000
C 27.5508000000 -15.2073000000 0.0754000000
H 26.9118000000 -16.0256000000 -0.2645000000
H 27.3677000000 -14.3208000000 -0.5327000000
H 27.2984000000 -14.9688000000 1.1127000000
