15
0 1
C 28.9599000000 -15.7561000000 -0.7246000000
N 29.3066000000 -16.8810000000 0.0180000000
H 28.5841000000 -17.5764000000 0.1686000000
N 30.7368000000 -18.7601000000 -0.0127000000
C 32.0747000000 -19.0645000000 0.0087000000
H 32.3829000000 -20.1032000000 0.0038000000
C 32.9289000000 -17.9857000000 0.0116000000
H 34.0101000000 -17.9838000000 -0.0148000000
S 32.0345000000 -16.5192000000 -0.0149000000
C 30.5828000000 -17.4524000000 -0.0106000000
O 29.7979000000 -14.9788000000 -1.1502000000
C 27.4702000000 -15.5854000000 -0.9222000000
H 26.9035000000 -15.9362000000 -0.0563000000
H 27.2569000000 -14.5323000000 -1.1031000000
H 27.1601000000 -16.1623000000 -1.7993000000
