15
0 1
C 28.0914000000 -17.3623000000 -0.4207000000
N 29.3238000000 -16.8402000000 -0.0074000000
H 29.2222000000 -16.0015000000 0.5530000000
N 30.7431000000 -18.7785000000 0.0037000000
C 32.0879000000 -19.0627000000 -0.0114000000
H 32.4100000000 -20.0972000000 -0.0081000000
C 32.9323000000 -17.9782000000 0.0094000000
H 34.0129000000 -17.9660000000 0.0497000000
S 32.0171000000 -16.5251000000 -0.0090000000
C 30.5602000000 -17.4784000000 0.0146000000
O 27.0723000000 -16.7680000000 -0.1112000000
C 28.1129000000 -18.6026000000 -1.2760000000
H 28.2961000000 -19.4795000000 -0.6524000000
H 27.1400000000 -18.6831000000 -1.7608000000
H 28.9121000000 -18.5603000000 -2.0189000000
