14
0 1
C 2.0282000000 -24.6376000000 -0.9186000000
H 0.9837000000 -24.6575000000 -1.2008000000
C 2.8266000000 -25.6827000000 -0.4907000000
H 2.4969000000 -26.7099000000 -0.3875000000
N 4.1167000000 -25.3564000000 -0.1873000000
C 4.2985000000 -24.0642000000 -0.3696000000
S 2.9335000000 -23.1888000000 -0.9613000000
S 5.9186000000 -23.3011000000 -0.2310000000
C 5.5989000000 -21.9292000000 0.8616000000
H 5.2267000000 -22.3129000000 1.8125000000
H 6.5607000000 -21.4310000000 1.0022000000
H 4.8879000000 -21.2479000000 0.3931000000
O 6.7996000000 -24.2353000000 0.4430000000
O 6.2369000000 -22.7462000000 -1.5417000000
