14
0 1
C 2.0276000000 -24.6262000000 -0.8858000000
H 0.9754000000 -24.6379000000 -1.1381000000
C 2.8197000000 -25.6809000000 -0.4658000000
H 2.4774000000 -26.7008000000 -0.3351000000
N 4.1226000000 -25.3668000000 -0.2091000000
C 4.3132000000 -24.0803000000 -0.4372000000
S 2.9466000000 -23.1891000000 -0.9783000000
S 5.8923000000 -23.2876000000 -0.1824000000
C 6.9835000000 -24.3804000000 -1.0622000000
H 6.9073000000 -25.3728000000 -0.6183000000
H 7.9870000000 -23.9682000000 -0.9364000000
H 6.6984000000 -24.3858000000 -2.1146000000
O 6.2334000000 -23.3403000000 1.2305000000
O 5.8103000000 -22.0126000000 -0.8891000000
