15
0 1
C 28.7881000000 -16.3481000000 -1.2010000000
N 29.3113000000 -16.8497000000 -0.0019000000
H 28.6435000000 -17.2878000000 0.6217000000
N 30.7445000000 -18.7739000000 -0.0031000000
C 32.0823000000 -19.0655000000 0.0042000000
H 32.4031000000 -20.1004000000 0.0026000000
C 32.9310000000 -17.9773000000 -0.0051000000
H 34.0123000000 -17.9696000000 -0.0331000000
S 32.0205000000 -16.5294000000 0.0028000000
C 30.5746000000 -17.4671000000 0.0031000000
O 29.4902000000 -16.1009000000 -2.1627000000
C 27.2911000000 -16.1308000000 -1.1649000000
H 26.9579000000 -15.7824000000 -0.1841000000
H 26.7905000000 -17.0784000000 -1.3883000000
H 27.0207000000 -15.4034000000 -1.9298000000
