21
0 1
C 21.7793000000 -33.7343000000 -1.0773000000
H 22.2854000000 -34.1042000000 -1.9646000000
C 20.3856000000 -33.6974000000 -0.9973000000
H 19.7733000000 -34.0409000000 -1.8266000000
C 19.8003000000 -33.2114000000 0.1752000000
H 18.7214000000 -33.1641000000 0.2901000000
C 20.6364000000 -32.7837000000 1.2124000000
H 20.2140000000 -32.4031000000 2.1403000000
N 21.9798000000 -32.8140000000 1.1528000000
C 22.5340000000 -33.2785000000 0.0140000000
C 26.1750000000 -32.1844000000 0.0024000000
H 26.7477000000 -31.2616000000 0.0133000000
C 24.7775000000 -32.1391000000 -0.0019000000
H 24.2526000000 -31.1872000000 0.0164000000
C 24.0168000000 -33.3189000000 -0.0270000000
C 24.7062000000 -34.5345000000 -0.0091000000
C 26.0956000000 -34.6102000000 0.0012000000
H 26.5758000000 -35.5838000000 0.0182000000
C 26.8330000000 -33.4210000000 0.0054000000
H 27.9185000000 -33.4646000000 0.0136000000
F 23.9961000000 -35.6857000000 -0.0016000000
