13
0 1
C -1.1660000000 -1.3750000000 -0.6078000000
H -0.5455000000 -1.1256000000 -1.4688000000
H -0.9327000000 -0.7536000000 0.2558000000
H -2.2211000000 -1.2661000000 -0.8635000000
S -0.9837000000 -3.0975000000 -0.1765000000
O -1.1824000000 -3.9187000000 -1.3622000000
N 0.6340000000 -3.2952000000 0.2654000000
H 1.0296000000 -3.9319000000 -0.4218000000
O -1.8042000000 -3.2876000000 1.0049000000
C 1.5041000000 -2.1284000000 0.4486000000
H 1.1392000000 -1.5226000000 1.2805000000
H 1.6050000000 -1.5019000000 -0.4452000000
H 2.4906000000 -2.5042000000 0.7263000000
