13
0 1
O 21.7614000000 -16.6433000000 0.4703000000
C 21.0972000000 -18.7505000000 -0.4988000000
H 21.3087000000 -19.7461000000 -0.1023000000
H 20.0819000000 -18.4357000000 -0.2551000000
H 21.2207000000 -18.8010000000 -1.5859000000
C 22.0801000000 -17.7447000000 0.0426000000
N 23.9557000000 -19.3770000000 -0.0122000000
C 25.3168000000 -19.3941000000 0.0178000000
H 25.8435000000 -20.3412000000 0.0454000000
C 25.9271000000 -18.1503000000 0.0140000000
H 26.9859000000 -17.9264000000 0.0122000000
S 24.7516000000 -16.9156000000 -0.0109000000
C 23.5173000000 -18.1236000000 -0.0513000000
