16
-1 1
C -0.0165450000 -0.0409780000 -1.4829510000
C 0.0239010000 0.0174250000 0.0523390000
Cl -1.7260480000 -0.4041970000 -2.0574980000
H 1.1053170000 0.1228690000 0.2175790000
C 0.2654060000 1.3048510000 -2.0313730000
N 0.4913490000 2.3498450000 -2.5207150000
N 0.8777340000 -1.0503880000 -1.9203430000
H 0.9666510000 -1.0077890000 -2.9304360000
H 1.7956680000 -0.7414470000 -1.4556910000
C -0.4261180000 -1.2560450000 0.6063030000
N -0.8145030000 -2.2277030000 1.1407640000
C -0.7596540000 1.1762960000 0.6632350000
H -0.6724520000 1.1437770000 1.7515160000
H -0.3483730000 2.1264620000 0.3172730000
H -1.8186960000 1.1278590000 0.3987780000
F 2.6771050000 0.1305840000 -0.5709420000
