14
-1 1
C -0.0201800000 0.0319380000 -0.0502970000
C -0.3905450000 0.0380370000 -1.5468580000
F 1.3626080000 0.2540420000 0.0584240000
H 0.5543400000 -0.0402060000 -2.0977830000
H -0.2694830000 -0.9411700000 0.3604910000
C -0.6915800000 1.0552480000 0.7587600000
N -1.0495980000 1.9568590000 1.4199820000
N -0.8169390000 1.4833950000 -1.9366440000
O 0.0282650000 2.3602080000 -1.7655610000
O -1.9260560000 1.6556700000 -2.4335070000
N -1.3238270000 -0.9574050000 -1.8601540000
H -1.7852950000 -0.7541720000 -2.7358210000
H -1.9880190000 -1.0076620000 -1.0337840000
F -2.3222940000 -0.8555970000 0.4410990000
