15
-1 1
C 0.4823979535 -0.0796239017 -0.0395362844
H 1.5070964746 1.5884799996 -0.6714321207
Cl -1.7181312312 -0.3757399542 -0.5748632844
F 2.2585964826 0.0299409221 0.6182031522
C 0.5586610260 1.4485150759 -0.1395943473
N 0.9460307405 -0.8168918144 -1.1723596404
H 0.2888217363 -1.5495182737 -1.3955510357
H 1.8462352424 -1.1927235000 -0.9021749610
C 0.1915493404 -0.7160016136 1.2348585780
N 0.0130500470 -1.2938459373 2.2440375102
N 0.5579453226 2.0192115748 1.2025180470
H 0.6306049863 3.0276546332 1.1360821928
H 1.4008227293 1.6532395615 1.6337843547
C -0.4568639214 2.1267620458 -0.9559444801
N -1.1001269288 2.8647811820 -1.6054676807
