17
-1 1
C -0.0015891202 0.0293739991 -0.3766564249
C -0.1755640877 0.0093802518 1.0778717286
Cl 1.7265638289 0.0235015544 -0.9976861754
H -2.0472904217 -0.4008276419 2.4899754180
H -1.3198646671 -0.2347834023 1.4482048229
N -0.6346574787 -1.1521706859 -1.1083514721
O -0.9445199145 -0.9702053299 -2.2811222834
O -0.7688455549 -2.2007725908 -0.4864142869
N -0.7199328348 1.2591817907 -0.9337069073
O -0.0756816749 2.1628565789 -1.4357735001
O -1.9356665079 1.2123904916 -0.7962545132
N 0.0148987335 1.3392811977 1.5984458028
H 0.9542969938 1.3935093966 1.9792848782
H -0.6486888625 1.4135737681 2.3737997365
N 0.6503085331 -0.9690886300 1.7750669581
H 0.0723704527 -1.1806135047 2.5982213187
H 0.6582925829 -1.8304672432 1.2374548993
