16
-1 1
C 0.7665165072 -0.0243715976 0.0030107012
H 1.7447456074 1.8738516232 0.2056030322
F -1.1203879325 0.0553183059 -0.1606036881
Cl 2.9730358398 -0.2345893751 -0.1832201140
C 0.7309371401 1.5137585426 0.0290080878
N 0.6184701128 -0.8743728548 -1.2596654875
O 0.6402013428 -0.3388019344 -2.3528707970
O 0.4890507783 -2.0744484899 -1.0523087461
N 0.6841897341 -0.6748876264 1.2434122176
H 1.2435529672 -1.5152384825 1.2235069193
H -0.2963354980 -0.8995996223 1.3673259517
C -0.0593230591 1.9173501555 1.2189729513
N -0.6340861226 2.4177530782 2.1138172575
N 0.2295079868 2.1316966083 -1.1863507601
H 0.1110101042 3.1220757142 -1.0052630470
H -0.6831855085 1.7194459551 -1.3441444787
