15
-1 1
C 0.4661569260 -0.0569603782 0.0152853261
H 1.7409316615 1.6359095977 0.2315091764
Cl -1.6392247197 -0.1434464387 -0.3024628832
H 2.5240485124 -0.3328730161 -0.2179444971
C 0.6881587833 1.4534589270 0.0495428056
H 0.7023215373 -0.5006505841 -0.9362157231
N 0.4904613882 -0.7648420980 1.2556888863
H 1.4685312295 -0.9070506465 1.4648543723
H 0.0497643285 -1.6643004122 1.1054870780
N 0.0286696826 2.0566379510 1.3044817963
O -0.9955480887 2.7254477255 1.1674748350
O 0.6243628364 1.8974833282 2.3670162556
N 0.2646488769 2.0755704529 -1.1530876456
H 0.4505216306 3.0685000451 -1.1186084657
H -0.7282245846 1.9240855465 -1.2759813169
