12
-1 1
C 0.5287719685 -0.0450833426 0.0613765550
H 1.5952326377 1.6342311106 -0.5689824849
Cl -1.2984546366 -0.6662985862 -1.0055119268
F 2.1663672575 0.1321674557 1.0673093867
C 0.6008905158 1.4629958628 -0.1365139760
H 1.1116497332 -0.6852933324 -0.5691779861
H 0.1135662706 -0.4062295297 0.9815763621
N 0.4628732004 2.0885689693 1.1844831012
H 0.6591960743 3.0799535921 1.0955823424
H 1.2293742151 1.6469227116 1.6916666874
C -0.3693280379 2.0841618659 -1.0518971835
N -1.0180291986 2.7620532231 -1.7583608774
