17
-1 1
C -0.3765565800 0.1230677095 -0.2816612690
C -0.1367490478 0.0121153801 1.2081234667
Cl 1.5528386971 -0.1025165040 -1.0906262658
H -2.4180425202 -0.9135849498 1.6770020736
H -1.2618364255 -0.0678932341 1.5893574478
N -1.0638400346 -1.0084221030 -0.8086108931
H -1.8588492335 -1.1305055127 -0.1516629838
H -0.4751184403 -1.8235964256 -0.6961739097
N -0.9559211421 1.2629064158 -0.7472792820
H -0.5828716679 2.1218290149 -0.3772827987
H -1.1434178916 1.2246771072 -1.7362942651
N 0.5477605548 1.1887144325 1.8091843677
O 1.3758794942 1.0196060257 2.6998309619
O 0.1973813403 2.3176236835 1.4241817790
N 0.4241404386 -1.1976949937 1.6652496314
H 1.1210640585 -1.5711084192 1.0358081442
H -0.3413615999 -1.8435576270 1.8390137948
