16
-1 1
C -0.0095300000 -0.0078670000 0.0003970000
C -0.5083740000 -0.0489520000 -1.4700010000
F 1.3777620000 0.0106560000 -0.0040290000
H -1.6118850000 -0.0550540000 -1.3407980000
N -0.4693610000 1.1719660000 0.6669920000
H -0.1551540000 2.0035770000 0.1771920000
H -1.4970840000 1.0829810000 0.5954220000
N -0.4795200000 -1.2042670000 0.6167710000
H -1.5046040000 -1.1021430000 0.5387770000
H -0.2431880000 -1.1164060000 1.6008730000
N -0.0726750000 -1.3038980000 -2.1591800000
O 1.0856770000 -1.3533700000 -2.5719020000
O -0.8993580000 -2.2064940000 -2.2491990000
C -0.0228000000 1.0951600000 -2.2240520000
N 0.3363620000 2.0503720000 -2.8057010000
F -2.8076300000 0.0537120000 -0.0229530000
