18
-1 1
C -0.5789510000 -0.0370030000 -1.4695880000
C 0.2334570000 0.0350100000 -0.1870940000
F -1.8976060000 -0.2842990000 -1.1533860000
H 1.2700420000 0.2481690000 -0.4635070000
N -0.5524560000 1.3306110000 -2.1261260000
O -1.5963850000 1.9620240000 -2.2225620000
O 0.5464910000 1.6917010000 -2.5376150000
C -0.1177200000 -1.0629460000 -2.4707960000
H -0.1201530000 -2.0301340000 -1.9719580000
H 0.8947610000 -0.8302370000 -2.7972010000
H -0.7909390000 -1.0711450000 -3.3321500000
N 0.2282830000 -1.2770390000 0.4440870000
H -0.6918080000 -1.4026920000 0.8602620000
H 0.8772500000 -1.1288380000 1.2437640000
N -0.2198390000 1.1660060000 0.6077030000
H 0.4165500000 1.1378670000 1.4170500000
H -1.1461460000 0.9431930000 0.9625780000
H 1.7899510000 -0.0119640000 2.3636540000
