14
-1 1
C -0.2115532257 -0.0034287198 -0.3197543883
C -0.3235028713 0.1001355069 1.1351512188
Cl 1.5961922965 -0.1130482097 -0.9986476201
H -2.4102189363 -0.5123861406 2.2472333418
H -1.5056809838 -0.0847701059 1.4440755188
N 0.0042265116 1.4150884084 1.6375935232
H 0.9441715755 1.3750148918 2.0190817017
H -0.6232302571 1.5849960726 2.4213861308
N 0.3144449732 -0.9915902317 1.8513059618
H 0.7580936465 -1.6477382953 1.2199686733
H -0.4432090762 -1.4661695063 2.3540048537
C -0.8155246940 1.1111021386 -1.0333363847
N -1.3414542839 1.9637275933 -1.6473545772
H -0.6223746750 -0.9479334022 -0.6838179537
