19
-1 1
C -0.2228550000 0.0123760000 -1.5026180000
C 0.0438850000 0.1410640000 0.0178960000
Cl -1.9539010000 -0.3638200000 -1.8131710000
H 1.1086320000 0.4244860000 0.0565240000
N 0.0724770000 1.3754330000 -2.1190610000
O -0.8332740000 2.0995530000 -2.5232310000
O 1.2637230000 1.6791830000 -2.1147870000
C 0.6619990000 -1.0230020000 -2.1667900000
H 0.7297290000 -0.8353840000 -3.2419060000
H 1.6330350000 -1.0556840000 -1.6442950000
H 0.2127490000 -2.0038170000 -2.0099090000
N -0.0150130000 -1.1237500000 0.7129470000
H 0.9138950000 -1.5591450000 0.5038660000
H -0.7878830000 -1.6869780000 0.3768490000
C -0.8273630000 1.2026410000 0.6780350000
H -0.7621350000 2.1792040000 0.1886010000
H -1.8753680000 0.8936940000 0.6907510000
H -0.4926360000 1.3036120000 1.7118460000
F 2.4522620000 -1.4978500000 -0.0672860000
