16
-1 1
C 0.7472949369 0.0366326414 0.0050328519
H 1.6796435665 1.9379225300 0.1487265337
F -0.9544239377 -0.2142718800 0.4674650753
F 2.5478379322 0.0459883311 -0.2316138231
C 0.6685908756 1.5700457571 0.0019804528
H 0.3603046434 1.8318925107 -1.0168783177
C 0.5802597559 -0.7669377545 -1.2556161806
H -0.4411188494 -0.6689745839 -1.6183178434
H 1.2985986158 -0.4162338189 -1.9936736960
H 0.7856176302 -1.8126281677 -1.0338412860
N 1.0903591430 -0.6460961234 1.2877315923
O 1.2948923141 0.0711823681 2.2650135181
O 1.1430860431 -1.8684712706 1.3100064626
N -0.2285470472 2.2324563430 0.9414588231
H 0.1655250971 2.0683892566 1.8603399869
H -1.0731307193 1.6716738610 0.9233058502
