14
-1 1
C -0.3293960000 0.0744750000 0.0711710000
C -0.5922320000 0.0498340000 -1.4361230000
F 0.7122730000 -0.7483140000 0.3817490000
H -1.4728160000 0.6748500000 -1.6006720000
H -1.2391540000 -0.2291510000 0.5974300000
N 0.0314090000 1.4670610000 0.5126270000
O 1.0728490000 1.6416990000 1.1340820000
O -0.7834210000 2.3325810000 0.2023930000
N -0.8752970000 -1.2771890000 -1.9471340000
H -1.7703750000 -1.5478570000 -1.5322250000
H -0.1666290000 -1.9171560000 -1.6061150000
C 0.5562270000 0.6377290000 -2.1481570000
N 1.4858240000 1.0976680000 -2.6979730000
Cl -3.4246210000 -1.1519040000 0.0615030000
