14
-1 1
C -0.0094800000 0.0094090000 0.0094590000
C -0.5210110000 0.4354040000 -1.3505170000
F 1.3719040000 -0.0973120000 -0.0005310000
H -1.6182880000 0.4566540000 -1.3003020000
H -0.1491470000 1.4335460000 -1.5800400000
N -0.1753480000 1.2166200000 1.0073690000
O -0.1711940000 2.3593480000 0.5602220000
O -0.2188700000 0.9170890000 2.1962400000
N -0.5883710000 -1.1560770000 0.4670040000
H -0.3631300000 -1.3097120000 1.4417120000
H -1.6090490000 -1.1084540000 0.3391410000
C -0.0738590000 -0.4981900000 -2.3782060000
N 0.3023440000 -1.2004770000 -3.2395100000
Cl -3.6203910000 -0.3125260000 -0.0891210000
