16
-1 1
C 0.7076835857 0.0778051516 0.0326592205
H 1.7620178744 1.9136151393 -0.1327045849
F -1.0591926457 0.0198385344 0.1558466135
F 2.5580926577 -0.0226571123 -0.2100706122
C 0.7194498399 1.6146027152 -0.0624992466
C 0.6511593134 -0.7419791718 -1.1749866946
N 0.5600554539 -1.4668530699 -2.0958248498
N 0.8737100165 -0.5333388527 1.3232542497
H 1.7480453655 -1.0369836213 1.2730747907
H 0.0893760436 -1.1549602534 1.4627481014
N 0.1476759614 2.2397173053 1.1298246112
H 0.7116772936 1.9259769953 1.9149397836
H -0.7472842915 1.7725163878 1.2518382171
N 0.0265856735 2.0109253905 -1.2746917914
H -0.0854624801 3.0177193176 -1.2318771379
H -0.8950296619 1.5904751446 -1.2207006700
