17
-1 1
C -0.5107870000 0.0578290000 -1.5766830000
C 0.1936790000 -0.0278410000 -0.2132140000
Cl -0.2552450000 -1.4956440000 -2.4857440000
H 1.2692560000 -0.1396860000 -0.4212460000
C -1.9558070000 0.2132670000 -1.3994560000
N -3.1111370000 0.3964730000 -1.2901340000
C 0.0452000000 1.1905890000 -2.4264650000
H -0.4544180000 1.2310740000 -3.3963460000
H 1.1136570000 1.0235020000 -2.5771310000
H -0.0903270000 2.1213650000 -1.8779080000
N -0.3347100000 -1.1118170000 0.5994590000
H 0.2350770000 -1.0245600000 1.4542000000
H -0.0852380000 -2.0026270000 0.1778360000
N 0.0355510000 1.2390890000 0.4682440000
H 0.7335220000 1.1479560000 1.2366720000
H -0.8709320000 1.1925960000 0.9313610000
H 1.7591490000 0.0421570000 2.2462540000
