16
-1 1
C -0.1467391146 0.0438368527 -0.3383611564
C -0.0682734038 -0.0118566695 1.1627090837
Cl 1.5415066320 0.0670743516 -1.1338774783
F -2.5745765273 0.2977682695 1.2033016530
H -1.4333955001 0.0899807125 1.3530188440
C -0.7718511313 -1.1881309499 -0.8490785704
N -1.2577305474 -2.1799251096 -1.2487771577
N -0.8637275639 1.1822926505 -0.8774126784
H -0.3555201220 2.0134104098 -0.5873369419
H -1.7475413883 1.1710285882 -0.3599909977
C 0.4992890711 1.2018589369 1.6768490139
N 0.9332011136 2.2047297401 2.1226416592
C 0.5565421887 -1.2669688825 1.7496627505
H 1.6040796129 -1.3974422033 1.4493249277
H 0.5168818414 -1.2271423346 2.8414327828
H -0.0039751612 -2.1502943626 1.4319142661
