12
-1 1
C -0.1851970000 -0.0777490000 -1.4618460000
C -0.0068980000 0.0328790000 0.0460160000
F -1.4595840000 -0.4882040000 -1.8303230000
H 1.0934950000 0.0227390000 0.0759260000
H 0.5511710000 -0.8186060000 -1.7937060000
C 0.0956900000 1.2018610000 -2.1281430000
N 0.2697860000 2.2066560000 -2.7091620000
C -0.4803250000 -1.1742510000 0.7024660000
N -0.8014400000 -2.1685940000 1.2409230000
C -0.5923730000 1.2206400000 0.6366090000
N -1.0094270000 2.2017860000 1.1353750000
H 2.4161540000 -0.2669210000 -0.3940060000
