15
-1 1
C 0.4959128808 -0.0858615875 -0.0068947451
H 1.2607551771 1.8132115961 0.6175636481
Cl -1.8350807041 -0.3287997492 0.3732943235
Cl 2.7811207753 0.1143257452 -0.6847593551
C 0.4288413953 1.4282716487 0.0360156583
H -0.5196287823 1.7552026645 0.4599540828
C 0.3106022782 -0.8968749915 -1.1783842178
N 0.1837570035 -1.6605148043 -2.0667719809
C 0.8016729357 -0.7622887320 1.3187688140
H 1.8643247738 -0.7104375571 1.5440701627
H 0.2300691972 -0.2763711282 2.1093712232
H 0.4818824615 -1.8019578516 1.2746305611
N 0.5138984017 2.1194506853 -1.2793959894
O 1.0126534519 3.2432117417 -1.2601642301
O 0.0119187543 1.5793923200 -2.2568779554
