15
-1 1
C 0.6372318953 0.0018067128 -0.0122984916
H 1.7117850101 1.8032432232 -0.1029921847
F -1.1108556622 -0.1178914618 -0.1607227118
F 2.4769618185 -0.1345847612 0.1638592082
C 0.6632355502 1.5258666063 -0.0214456837
H 0.7641437769 -0.5251985428 -0.9405445400
C 0.6007654064 -0.7410624310 1.2309207979
N 0.5219753003 -1.3228697243 2.2484541612
C 0.0835085613 2.0924916619 1.2727555808
H -0.9441473309 1.7456635544 1.3894391102
H 0.6657959405 1.7731923404 2.1413620343
H 0.0944206152 3.1881931060 1.2379981674
N -0.0324197000 1.9862300470 -1.2305429676
H -0.1531385327 2.9915910773 -1.1655725529
H -0.9468626489 1.5486785918 -1.1886599278
