18
-1 1
C -0.2413960677 0.0220746549 -0.3546498811
C -0.2816224124 0.0094179497 1.1014263111
Cl 1.6151993387 0.0051772859 -1.0879413234
F -2.6119585305 -0.5217992266 1.8569565055
H -1.5943489069 -0.1049796200 1.4029377693
C -0.8903658533 -1.1880092115 -1.0001905418
H -0.3594514566 -2.0727910295 -0.6551661837
H -1.9197152563 -1.2367327737 -0.6343961654
H -0.8653743432 -1.1219465814 -2.0890595015
C 0.3223549467 1.2102412334 1.7951245320
H -0.0240595484 2.1567517266 1.3696179717
H 0.0392587250 1.1973915619 2.8528497387
H 1.4226075498 1.1978306368 1.7330147175
N 0.1669878012 -1.2744477943 1.6276439820
H -0.4892609744 -1.5522749525 2.3478947768
H 1.0938913821 -1.1889497976 2.0339701754
C -0.7550631336 1.2693228832 -0.9157316953
N -1.2003432602 2.2568030546 -1.3740811877
