14
-1 1
C -0.4713600000 0.1534240000 0.0412890000
C -0.6594220000 -0.4957190000 -1.3390500000
F 0.5002270000 -0.4990390000 0.7303470000
H -0.8406870000 -1.5464760000 -1.0911290000
H -1.4182020000 0.1284740000 0.5823060000
N -0.0352400000 1.5866440000 -0.1070170000
O -0.8835790000 2.3455940000 -0.5772990000
O 1.1050060000 1.8980940000 0.2144060000
C 0.5983590000 -0.3942220000 -2.0998140000
N 1.5980150000 -0.2934210000 -2.7072060000
N -1.7836760000 -0.0427230000 -2.1264670000
H -1.8135620000 0.9696510000 -2.1246890000
H -2.6096910000 -0.3907350000 -1.6377710000
Cl -3.2890450000 -1.5310960000 0.3470540000
