19
-1 1
C 0.6860434942 -0.0645002448 -0.0366609504
H 1.6047615059 1.8188741820 -0.3366295416
F -1.1508043378 -0.2521528695 -0.1139292506
F 2.5067810399 0.0226879847 0.1014177389
C 0.5940018009 1.4684364765 -0.1486103279
C 0.8627633005 -0.8425342953 -1.3304477024
H -0.0979726458 -1.0226579489 -1.8062514085
H 1.5371814561 -0.3064947943 -1.9995534535
H 1.3454809464 -1.7900602722 -1.0855177789
N 0.6357084759 -0.6518527886 1.2712754492
H 1.5148585135 -1.1238696908 1.4164196742
H -0.1619106680 -1.2682411731 1.2882352858
N 0.2776428426 2.0356615020 1.2024005261
O 1.2336121290 2.3350800609 1.9175065229
O -0.8992272513 2.1888318122 1.5220700010
C -0.3818344574 2.0161215007 -1.1693470334
H -0.1513345965 1.5901107202 -2.1486452805
H -1.3918880477 1.7373347721 -0.8945125480
H -0.2794435004 3.1051750661 -1.2362399223
