16
-1 1
C -0.0335059900 0.0897792230 -0.3463936427
C -0.1549219234 0.0061694862 1.1666635415
Cl 1.7282875982 0.2703880101 -0.8757427493
H -2.7089447392 0.2018904475 0.8884942737
H -1.3685238424 0.0307189745 1.2273430829
C -0.4763545391 -1.1817356009 -0.9437246647
N -0.8007194881 -2.2080932015 -1.4140431123
N -0.8007762880 1.1609100741 -0.9229748656
H -0.4447707395 2.0290589512 -0.5296487700
H -1.7454791358 1.0167713481 -0.5109572061
C 0.4155722352 -1.2387692288 1.8255047188
H -0.1034590670 -2.1236975888 1.4485771955
H 1.4882589679 -1.3525069180 1.6387806233
H 0.2531886389 -1.1916091260 2.9052723405
C 0.3142294418 1.2298298953 1.7704752633
N 0.6579488706 2.2299252542 2.2903239713
