16
-1 1
C 0.7088832225 0.0074634580 -0.0212938721
H 1.6741112784 1.9092628081 -0.1798293432
F -1.2308214704 -0.0546166664 -0.1275938615
Cl 2.9125640964 -0.2091567392 0.2330737526
C 0.6548357210 1.5495503210 -0.0442776795
C 0.6920687434 -0.7226702693 -1.2675648896
N 0.6983866291 -1.3302023258 -2.2744366944
C 0.4635699403 -0.7362248501 1.1941054745
N 0.2974113158 -1.3092420017 2.2077370074
C 0.1211006139 2.0655264657 1.2895703472
H -0.8844794077 1.6754454456 1.4442774743
H 0.7596868300 1.7627407212 2.1239962666
H 0.0909627800 3.1598325942 1.2625119879
N -0.0993146854 1.9640845018 -1.2203264570
H -0.1526503792 2.9759169878 -1.2310569884
H -1.0266252281 1.5654095491 -1.1168925248
