12
-1 1
C 0.5388650060 -0.0602002106 0.0496153326
H 1.5640029085 1.8175209279 0.3141033264
Cl -1.7705791166 -0.1478814152 0.2700660823
Cl 2.7724471312 -0.2829096049 -0.5514355891
C 0.5730569020 1.4435970587 0.0669913403
H 0.3615237889 -0.6141366437 -0.8506834976
H -0.1683170406 1.8564661011 0.7454989356
C 0.7453160326 -0.7200792933 1.3053528190
N 0.9209461385 -1.2149110920 2.3586752675
N 0.2540162365 2.0277091845 -1.2705037729
O 0.1663714428 3.2544596262 -1.2895062569
O 0.1221705702 1.2930453614 -2.2401139871
