13
-1 1
C -0.1175010000 0.1303160000 0.0230480000
C -0.5883040000 0.3060870000 -1.4352170000
Cl 1.5724930000 -0.4606040000 0.0960600000
H -1.6381330000 0.6118490000 -1.3359160000
H -0.8221370000 -0.7035800000 0.3660700000
C -0.2535990000 1.3343980000 0.8157590000
N -0.4147550000 2.3056140000 1.4604860000
N -0.5849320000 -0.9288730000 -2.1941360000
H -1.1758670000 -1.5542340000 -1.6215250000
H 0.3565230000 -1.3082030000 -2.1781030000
C 0.1469980000 1.3697030000 -2.1336110000
N 0.7467100000 2.2135510000 -2.6881830000
H -2.0120470000 -1.7600390000 0.0666210000
