17
-1 1
C 0.4893811567 -0.0064139207 -0.0643142462
H 1.3759834302 1.7082084100 -0.9706156560
F -1.0084939459 -0.2251669638 -0.7812963169
H 2.3205787321 0.0646722549 0.4179629280
C 0.6416343831 1.5414870378 -0.1709482248
C 1.2371932138 -0.8013124136 -1.0059037424
N 1.6386220142 -1.4921590056 -1.8777852946
C 0.0749856673 -0.6246535137 1.2603788924
H 0.8742210618 -0.6178556729 1.9936045114
H -0.7703334178 -0.0492585936 1.6426426405
H -0.2626954167 -1.6468218778 1.0760316348
N 1.0598945877 2.0983044899 1.1125786463
H 1.2251286813 3.0882558417 0.9587640592
H 1.9423998931 1.6353488975 1.3184661379
N -0.5685935711 2.2814023628 -0.5246836270
H -1.1744190074 2.2172083188 0.2883045185
H -1.0327374623 1.7374943483 -1.2417568611
