18
-1 1
C -0.1652047058 0.0364908762 -0.3634253086
C -0.1496329892 0.0994939830 1.1037097692
F 1.1789030143 -0.1083411324 -0.9804509131
H -2.3938381912 -0.4667674427 1.8291120035
H -1.4853370814 -0.0170419354 1.4647696257
C -0.6689891588 1.2940916493 -0.9430201749
N -1.0871438109 2.2824492986 -1.4235462400
C 0.5015965115 1.3170170239 1.7187183436
H 0.1392290423 2.2500791334 1.2730823229
H 0.2565681068 1.3368058494 2.7862488954
H 1.5989531613 1.3027423927 1.6348945706
N 0.2803286247 -1.1273028752 1.7510192262
H 0.9081530646 -1.6692475845 1.1682785735
H -0.5551029874 -1.6850639162 1.9523642175
C -0.9637877323 -1.1354574276 -0.9030104676
H -0.4509436823 -2.0624493434 -0.6460555786
H -1.9500852943 -1.1424243519 -0.4255757253
H -1.0588158919 -1.0748341973 -1.9894631402
