15
-1 1
C 0.0403310000 0.0215380000 0.0197680000
C -0.6051110000 -0.2057780000 -1.3350240000
Cl 1.8327050000 -0.2345370000 -0.1362740000
H -1.6953240000 -0.0502520000 -1.2533500000
H -0.4257390000 -1.2297150000 -1.6568980000
C -0.1488330000 1.3705480000 0.5572720000
N -0.2900760000 2.4027680000 1.0997980000
C -0.5191750000 -0.9990410000 1.0049220000
H -0.2731930000 -2.0052480000 0.6603630000
H -1.6079780000 -0.8959050000 1.0301240000
H -0.0863500000 -0.8408670000 1.9937450000
N -0.0591140000 0.6662680000 -2.4044490000
O 0.1086820000 1.8561260000 -2.1476740000
O 0.1581430000 0.1407160000 -3.4955390000
Cl -3.7543750000 -0.7036730000 -0.4557140000
