14
-1 1
C -0.5371610000 0.0012160000 -1.4929830000
C 0.0485740000 0.0704490000 -0.0773880000
F -1.9185700000 -0.1285910000 -1.4349740000
H 1.1359120000 0.1947810000 -0.1220220000
C -0.2428840000 1.2206320000 -2.2733900000
N -0.0116340000 2.1964130000 -2.8851260000
C -0.0015500000 -1.1702120000 -2.2068490000
N 0.4005640000 -2.0648590000 -2.8519570000
N -0.1348820000 -1.1893930000 0.5878290000
H -0.8230340000 -1.1217150000 1.3274570000
H 0.8503170000 -1.3433690000 0.9874780000
C -0.5292870000 1.2372090000 0.5997280000
N -1.0056400000 2.1498230000 1.1678890000
H 2.2966200000 -0.8787430000 1.0087350000
