13
-1 1
C 0.6092689924 -0.0322613880 -0.0539321792
H 1.6860324864 1.7926043279 -0.1567071904
Cl -1.7091413334 -0.1640849219 -0.0158083462
Cl 2.8970042378 -0.3072707128 0.3696436676
C 0.6413787101 1.4945822012 -0.0671346393
H 0.5210398444 -0.5896194635 0.8576188354
C 0.7018972945 -0.7213635875 -1.3080480647
N 0.7740927085 -1.2829851914 -2.3397875334
C 0.1724944238 2.0103643697 1.2371365644
N -0.1646772507 2.5293950258 2.2358369008
N -0.0502115948 2.0489250392 -1.2169215049
H 0.0942923223 3.0506635698 -1.2380456143
H -1.0402908413 1.8501407315 -1.1356908957
