17
-1 1
C -0.0572121181 -0.1199026459 -0.3571147874
C -0.0929609873 -0.0169932169 1.1546348366
F 1.2149616557 -0.3191979574 -0.8460827639
H -2.5452254035 -0.6749853180 1.3531992646
H -1.2932676683 -0.2381903117 1.3798557421
N -0.9238598560 -1.0957822230 -0.9167356018
H -1.7728921518 -1.0934203887 -0.3244139096
H -0.4716066357 -1.9949099411 -0.7880874128
N -0.4862452482 1.2478104413 -0.9065851787
O 0.3972542762 2.0341148418 -1.2376098886
O -1.6897155703 1.4717798308 -0.9208893535
C 0.3585194975 1.3030932305 1.7651554177
H -0.3451499221 2.0946219169 1.4928614891
H 0.3464283816 1.2193271753 2.8548307487
H 1.3619813001 1.6036910261 1.4480167632
C 0.6019183053 -1.1542447097 1.7017324379
N 1.1352521449 -2.0952017503 2.1702421963
