13
-1 1
C -0.0988516124 0.0954608656 -0.3877035181
C -0.0889198223 0.0242235948 1.1238556920
F 1.2010064759 0.1825648560 -0.9136952915
H -2.5966221766 0.3852895601 1.1800337372
H -1.3177319000 0.1155893601 1.3332274444
N -0.8596007556 1.1963730111 -0.9111841186
H -0.4146991768 2.0425088505 -0.5628324174
H -1.7684530406 1.1296295160 -0.4236536907
C 0.5634891738 1.1673648711 1.7030675191
N 1.0394048123 2.1309507145 2.1867469252
C -0.6599992006 -1.1725227504 -0.9176001996
N -1.0630292312 -2.1920559192 -1.3359847051
H 0.3169764541 -0.9152265301 1.5071326232
