16
-1 1
C -0.1639584772 0.0241194358 -0.1949501241
C -0.3435923633 0.0375820740 1.3197339589
Cl 1.5803688829 0.3299887203 -0.6163107825
H -3.1992494685 -0.9199931845 0.9577756863
H -1.4335287828 -0.1256940786 1.4573320971
H 0.1490165961 -0.8774481977 1.6657327107
C -0.6533044762 -1.2879646777 -0.7967646517
H 0.1441868214 -1.7859778023 -1.3495150205
H -1.0446515300 -1.9151909416 0.0031789475
H -1.4972452976 -1.1082875428 -1.4573648967
N -0.8853281144 1.1899685589 -0.8762044365
O -0.9771010916 1.1453028209 -2.0984397919
O -1.2920359771 2.1129878263 -0.1773824523
N 0.1512094877 1.1581036739 2.0960501737
H -0.4138849220 1.9662420419 1.8778392588
H 1.1062087125 1.3693612732 1.8308893232
