18
-1 1
C 0.5074704130 -0.1136418992 0.0415676506
H 1.4602826292 1.6596723487 0.7229788156
F -1.0432758201 -0.3189747465 0.5323445921
H 2.2459737965 0.1281333685 -0.5533446640
C 0.5609960452 1.4207983342 0.1667898742
N 0.2380570087 -0.6908194212 -1.2670460207
H -0.4903640190 -1.3836670081 -1.1382858600
H 1.0925740959 -1.0987473582 -1.6079422711
N 1.0667597214 -0.8523460482 1.1579924516
H 1.9202055191 -1.2900956329 0.8554678466
H 0.3713561226 -1.5340089766 1.4371115203
N -0.5456779141 1.9521044960 1.0761678990
O -1.5809058890 2.3980173863 0.5836963421
O -0.3154427687 1.9324727621 2.2853722809
C 0.4700951277 2.1483510050 -1.1543846258
H -0.4650084229 1.9002768198 -1.6522379874
H 0.5210034032 3.2308162320 -1.0007353318
H 1.3054309511 1.8186883384 -1.7681425122
