16
-1 1
C -0.2990629666 -0.0431630409 -0.3057255952
C -0.1467353422 0.0624351773 1.0977490104
Cl 1.7142535292 -0.1724227088 -1.3118122062
Cl -2.6746108276 -0.0461107242 2.5193105596
H -1.3971755620 0.0649824302 1.4922017177
C -0.8064071612 -1.2969314193 -0.8098143750
N -1.2478689647 -2.3283478436 -1.1693370605
C 0.3564990881 1.3786168095 1.6429298168
H -0.1995819351 2.2270463109 1.2401013415
H 0.2443900904 1.3749895232 2.7285840954
H 1.4168762993 1.4726002242 1.3889471943
N 0.4344263136 -1.0724140846 1.7573630531
H 0.5627018275 -1.8505345831 1.1216554662
H -0.1690698444 -1.3653598833 2.5191916224
C -0.7867950442 1.1159886754 -1.0086158313
N -1.2274395002 2.0654151374 -1.5492188091
