14
-1 1
C 0.7848932400 0.0273299443 -0.0233329860
H 1.6350978093 2.0033184035 0.0552483742
F -1.1186323648 -0.0564185440 -0.0470693967
Cl 2.9667349268 -0.1521802123 0.1482908207
C 0.6519709113 1.5405527092 -0.0014518493
H 0.0970309760 1.7632363005 0.9134298053
C 0.7225725392 -0.7314665400 -1.2457800678
N 0.6941710210 -1.3440559124 -2.2487607443
N 0.5882423181 -0.7475236191 1.2455952193
O 0.5355373858 -0.0983602079 2.2814460934
O 0.5171629247 -1.9624902150 1.1535970241
N -0.0035866927 1.9756129625 -1.2298509887
H -0.0616565296 2.9864362112 -1.2267959856
H -0.9364384649 1.5822387197 -1.1926653186
