16
-1 1
C 0.6206304756 -0.0612267876 -0.0145138397
H 1.6574346309 1.6341957601 -0.6421290603
Cl -1.6825216431 -0.5196635607 -0.6949245755
Cl 2.8273804411 -0.1643989503 0.7368001052
C 0.6853047769 1.4720728105 -0.1597438838
C 0.9685724742 -0.8519022478 -1.1631429170
N 1.3149750621 -1.4129799347 -2.1393761727
C 0.1897877539 -0.6871187975 1.2068290698
N -0.0936003804 -1.1758649570 2.2404191726
N 0.6133970969 2.0484263837 1.1742040907
H 0.6112968558 3.0580112832 1.0894083434
H 1.4440715260 1.7745446222 1.6880783663
C -0.3611141480 2.1261271158 -1.0474219460
H -0.4287060502 1.6328705053 -2.0160277283
H -1.3392732152 2.0995491560 -0.5747335815
H -0.0530956564 3.1677975988 -1.2056954431
