15
-1 1
C -0.0408380000 0.0051200000 -0.0139410000
C -0.3514820000 0.0990410000 -1.4885070000
F 1.3615030000 -0.0517370000 0.1273020000
H 0.3730270000 0.7961670000 -1.9202640000
H -1.3538020000 0.5065410000 -1.5600650000
N -0.3849090000 1.2798130000 0.7292340000
O -0.3511400000 1.2256990000 1.9516050000
O -0.5234100000 2.3019500000 0.0651050000
C -0.6060420000 -1.1514060000 0.6810490000
N -0.6017210000 -2.2175490000 1.1883860000
C -0.2720580000 -1.2693810000 -2.1531240000
H -1.0825180000 -1.8991520000 -1.7841430000
H 0.6780080000 -1.7666170000 -1.9404880000
H -0.3733420000 -1.1715740000 -3.2380530000
F -2.3203760000 -0.0804260000 0.2326260000
