19
-1 1
C 0.0161820000 0.0587490000 0.0353040000
C -0.4247910000 0.1286960000 -1.4354730000
F 1.4182140000 -0.2231670000 -0.0063030000
H 0.2809330000 0.8380390000 -1.8964120000
C -0.1238940000 1.4025290000 0.7165550000
H -1.1780160000 1.6379640000 0.8526420000
H 0.3245820000 2.1865660000 0.0998550000
H 0.3857690000 1.3783930000 1.6848410000
C -0.6336050000 -1.0629060000 0.8137140000
H -0.4266330000 -0.9524000000 1.8833460000
H -1.7106850000 -1.1052820000 0.6252270000
H -0.2289010000 -2.0196590000 0.4804180000
N -1.7640920000 0.6806230000 -1.5129630000
H -2.4174810000 -0.0894280000 -1.2706670000
H -1.9450050000 0.8589170000 -2.4964250000
N -0.3252160000 -1.1417050000 -2.1561790000
H 0.5085950000 -1.6372340000 -1.8562570000
H -1.1494820000 -1.6885830000 -1.8931320000
H -3.1979490000 -1.7390340000 -1.0355800000
