17
-1 1
C -0.3168940000 0.0029920000 -1.4981370000
C 0.0042250000 -0.1040200000 0.0040410000
Cl -0.0081270000 -1.8537880000 -2.1244000000
H 1.0194040000 -0.5304240000 0.0636240000
C -1.7755230000 0.2315300000 -1.8257360000
H -2.4049510000 -0.5826450000 -1.4663780000
H -1.9035150000 0.3224070000 -2.9073680000
H -2.0647960000 1.1692220000 -1.3451240000
N 0.5354640000 0.9056830000 -2.0626680000
H 1.4687750000 1.0310980000 -1.5970790000
H 0.5004550000 0.9924900000 -3.0663630000
C -0.9295290000 -1.0008240000 0.6882150000
N -1.6677260000 -1.6817730000 1.2975750000
N -0.0566190000 1.2332850000 0.6007070000
H -0.0352080000 1.1141080000 1.6108670000
H 0.8658580000 1.6318920000 0.3466350000
H 2.5457390000 1.3356630000 -0.4148450000
