14
-1 1
C -0.0027340000 -0.0353800000 0.0034910000
C -0.3875030000 0.0948510000 -1.4716930000
F 1.3922290000 -0.0977860000 0.0899190000
H 0.4221570000 -0.3904990000 -2.0252330000
H -1.3092630000 -0.4534860000 -1.6300960000
C -0.4004060000 1.0773520000 0.8697040000
N -0.3948970000 2.0383030000 1.5475320000
N -0.4242940000 -1.3630220000 0.6098020000
O -0.5386330000 -1.4126610000 1.8277060000
O -0.4828830000 -2.3100550000 -0.1668560000
N -0.5833990000 1.4537500000 -1.9317510000
H 0.1616280000 2.0583750000 -1.6067750000
H -1.4580150000 1.7720350000 -1.5225950000
Cl -3.1182390000 0.3930380000 -0.0112800000
