11
-1 1
C 0.3944606707 -0.0530356908 -0.0550389407
H 1.4342695927 1.7311884188 -0.5452256796
Cl -1.6653003993 -0.3226875866 -0.4131866414
F 2.2898138163 0.0158772458 0.5004609583
C 0.4847749281 1.4643688850 -0.0852386706
H 0.3651806207 -0.5762490942 0.8812932230
H -0.3426340662 1.9102726412 -0.6403300685
C 0.9180782514 -0.7542317244 -1.2015897654
N 1.2752356285 -1.3018695356 -2.1784675541
C 0.4833272033 2.0026809755 1.2714527222
N 0.4435537537 2.4849354654 2.3400904166
