15
-1 1
C -0.0153570000 0.0107370000 -0.0077380000
C -0.4785690000 0.0524460000 -1.4659730000
F 1.3903110000 -0.0098160000 0.0132640000
H -1.5834090000 0.0464790000 -1.3373800000
H -0.3631120000 -0.9387870000 0.4076360000
N -0.5154340000 1.0545150000 0.8172100000
H -0.4046240000 1.9422990000 0.3350170000
H -1.5332280000 0.8472670000 0.8474120000
C -0.0165720000 -1.1591320000 -2.2729720000
H -0.4034130000 -2.0648940000 -1.7986170000
H 1.0735400000 -1.2151930000 -2.3042080000
H -0.3986370000 -1.1222090000 -3.2960610000
C -0.0680240000 1.2992240000 -2.1014710000
N 0.2694260000 2.2971480000 -2.6235880000
H -2.9900840000 -0.0750520000 0.1037600000
