14
-1 1
C -0.0969480000 -0.0089870000 -1.4164250000
C -0.0825730000 0.0864500000 0.1159540000
Cl -1.8811540000 0.0987340000 -1.9434530000
H 0.9555700000 0.3365890000 0.3587970000
H -0.7557340000 0.9012150000 0.4014380000
C 0.5579270000 1.1490980000 -2.0228280000
N 0.8979070000 2.1677260000 -2.5011730000
C 0.4121960000 -1.2804650000 -1.9382740000
N 0.4056290000 -2.3579630000 -2.4189970000
C -0.4756580000 -1.2227960000 0.7801840000
H -1.4432830000 -1.5863850000 0.4254150000
H 0.2822720000 -1.9769970000 0.5639750000
H -0.5344950000 -1.0920190000 1.8648950000
F 2.1587590000 -0.4097080000 -1.1452190000
