14
-1 1
C -0.0046600000 -0.0009810000 0.0156090000
C -0.6170620000 -0.1892450000 -1.3671400000
Cl 1.8270040000 0.0074290000 -0.0648000000
H -1.7565390000 -0.1542360000 -1.0781760000
H -0.3494690000 0.6418400000 -2.0246780000
C -0.3802090000 1.3242140000 0.5200000000
N -0.5901580000 2.3966470000 0.9503070000
C -0.4623780000 -1.0831590000 0.9790600000
H -1.5564140000 -1.0173720000 0.9492300000
H -0.0678090000 -0.9029410000 1.9807730000
H -0.1168830000 -2.0558590000 0.6223430000
C -0.2365510000 -1.4477490000 -1.9731490000
N 0.0414350000 -2.4743100000 -2.4758150000
F -2.8794990000 -0.0251670000 -0.1416740000
