15
-1 1
C -0.1096922464 0.0412324668 -0.3560308671
C -0.1247392171 -0.0504938381 1.1051282518
F 1.2175314601 0.1110687312 -0.9534977012
H -2.5566289538 0.4447163572 1.3975397175
H -1.5385790445 0.1501600382 1.3483359036
H 0.2668078964 0.8870124123 1.5237686570
N -0.8132955104 1.1969788580 -0.8902562108
H -0.3193732785 2.0016315039 -0.5132909265
H -1.7219671497 1.1898272935 -0.4137069130
C 0.4860673790 -1.2879678598 1.7274899576
H 1.5582273051 -1.4233121280 1.5174812890
H 0.3667303307 -1.2593507849 2.8172300995
H -0.0274800996 -2.1919254761 1.3795654748
C -0.6948171451 -1.1812308858 -0.9643276175
N -1.1560517262 -2.1579266885 -1.4258991146
