16
-1 1
C 0.7226002699 -0.0365319955 0.0034692794
H 1.3629314549 1.9125540998 -0.4504267013
F -1.2102314495 -0.3148028770 -0.0893853852
Cl 2.8799374855 0.0618445996 0.5231455679
C 0.4680048530 1.4537000803 -0.0281058352
H -0.3399484631 1.5587312548 -0.7515767617
N 0.8870677871 -0.6769174348 -1.2396454600
H -0.0458221623 -1.0221801692 -1.4436296361
H 1.5230776522 -1.4544494137 -1.1284349508
N 0.5012627908 -0.9344755030 1.2149303232
O 0.2793045409 -0.4235397015 2.3016092865
O 0.5903055788 -2.1378676531 1.0073915193
C 0.0751896704 2.1574330253 1.2592882273
H -0.8487617395 1.7349458726 1.6479537840
H 0.8495385645 2.0689228231 2.0204267580
H -0.0820268336 3.2201729924 1.0414399846
