18
-1 1
C -0.6116990000 -0.1030300000 -1.4997350000
C 0.1013720000 -0.1108450000 -0.1345720000
Cl 0.3813260000 0.8823090000 -2.6927790000
H 1.1750330000 -0.2358250000 -0.3074810000
N -0.6195410000 -1.4773970000 -2.1586840000
O 0.4112210000 -2.1371590000 -2.0842220000
O -1.6425840000 -1.8230280000 -2.7455750000
N -1.9218900000 0.3549280000 -1.3558830000
H -1.8273740000 1.2042630000 -0.7980030000
H -2.3739130000 0.5223440000 -2.2439370000
C -0.4107330000 -1.2567480000 0.7364900000
H -1.4825060000 -1.1424700000 0.9220970000
H -0.2282420000 -2.2409980000 0.2997480000
H 0.1232520000 -1.2040770000 1.6880160000
N -0.1300440000 1.1924360000 0.4638330000
H -0.6025230000 1.0571260000 1.3531450000
H 0.8505370000 1.5543810000 0.7336730000
H 2.2748830000 1.6786530000 1.1766300000
