16
-1 1
C -0.0093990000 0.0228860000 0.0124750000
C -0.5552700000 -0.0610430000 -1.4284170000
Cl 1.8265180000 -0.1257390000 -0.0197420000
H -1.6608310000 -0.0774380000 -1.2132350000
C -0.2747750000 1.3728600000 0.5391730000
N -0.4484690000 2.4669610000 0.9299330000
N -0.5693990000 -0.9418100000 0.8971920000
H -1.6236640000 -0.8082580000 0.7519500000
H -0.3492980000 -1.8631820000 0.5235380000
C -0.2123570000 -1.3555530000 -2.0003910000
N 0.0507700000 -2.3908440000 -2.4916620000
C -0.1646200000 1.0812130000 -2.3600490000
H -0.6344410000 0.9409580000 -3.3364370000
H -0.5146780000 2.0295160000 -1.9476660000
H 0.9180770000 1.1317850000 -2.4966860000
H -2.9774100000 -0.3991810000 0.0208560000
