17
-1 1
C -0.2993430000 -0.0832100000 -1.4487440000
C -0.0131930000 -0.2351820000 0.0527700000
F -1.7075790000 0.0181880000 -1.6399340000
H 1.0361100000 -0.5418430000 0.1027790000
N 0.3673230000 1.0140590000 -1.9953480000
H 1.1489330000 1.4024250000 -1.3972300000
H 0.6533400000 0.8838240000 -2.9544020000
C 0.0358650000 -1.3625850000 -2.1392370000
N 0.3293370000 -2.3534230000 -2.6994890000
C -0.8966880000 -1.3052500000 0.6775550000
H -1.9367670000 -0.9787440000 0.6452440000
H -0.6089000000 -1.4551640000 1.7234510000
H -0.8056900000 -2.2658610000 0.1637860000
N -0.2332440000 1.0465800000 0.7100480000
H -0.1818930000 0.8756730000 1.7112280000
H 0.5925380000 1.6239910000 0.4827000000
H 2.2208260000 1.9043930000 -0.3360130000
