14
-1 1
C 0.6675546612 0.0088712322 -0.0321392401
H 1.6967570970 1.8601707817 -0.0736601316
F -1.0487851044 -0.1029297743 -0.0937141445
F 2.4510094986 -0.1135745707 0.1896095017
C 0.6652349804 1.5227049589 -0.0369681053
H 0.2194765270 1.8127002360 0.9207507478
C 0.8272940305 -0.7544235775 -1.2524508347
N 0.9260504887 -1.3523992858 -2.2580995959
N 0.6157689976 -0.7494725607 1.2603113442
O 0.5635235931 -0.0922427228 2.2924615664
O 0.6104817240 -1.9695444522 1.1935232324
N -0.0512162822 2.0178005713 -1.2131099619
H -0.0720472930 3.0297272265 -1.1747076581
H -0.9980029187 1.6688419376 -1.1399067203
