16
-1 1
C -0.6856410000 -0.0936680000 -1.4880830000
C 0.0611580000 -0.0448680000 -0.1262060000
Cl -2.5255660000 -0.1816080000 -1.1151600000
H 1.1267460000 -0.2003680000 -0.3041970000
N -0.3241680000 1.0785740000 -2.1687860000
H -0.3121320000 1.8280470000 -1.4757960000
H -0.9124770000 1.2694690000 -2.9675470000
C -0.4333150000 -1.2684650000 -2.3258690000
N -0.2382960000 -2.1500190000 -3.0781130000
N -0.3667290000 -1.2741780000 0.6767260000
O -1.0037510000 -1.1028930000 1.7102130000
O -0.0359560000 -2.3677850000 0.2198260000
N -0.1029490000 1.1842750000 0.5163390000
H 0.8845550000 1.2594830000 1.0666320000
H -0.9252440000 1.1612900000 1.1076070000
F 2.1527290000 0.9622590000 1.3983670000
