19
-1 1
C -0.1628840000 0.1065760000 -1.4775040000
C 0.0541430000 0.1776290000 0.0469690000
F -1.5466230000 -0.1483040000 -1.6862360000
H 1.0943080000 0.5054880000 0.1682210000
C 0.1563150000 1.4059830000 -2.1911140000
H -0.0733640000 1.2740300000 -3.2494390000
H -0.4150120000 2.2472440000 -1.7935650000
H 1.2250590000 1.6111960000 -2.0922440000
N 0.5495010000 -0.9686980000 -2.1246700000
H 0.0430110000 -1.8204400000 -1.9024850000
H 1.4571270000 -1.0964770000 -1.6258110000
N -0.0132550000 -1.1206040000 0.7092920000
H -0.7612500000 -1.6648890000 0.2903330000
H 0.8831890000 -1.5799220000 0.4943690000
C -0.8881910000 1.1582620000 0.7407670000
H -1.9263650000 0.8433040000 0.6067040000
H -0.7896120000 2.1815130000 0.3667010000
H -0.6657810000 1.1526480000 1.8095880000
H 2.6506350000 -1.5062430000 -0.3566520000
