16
-1 1
C -0.1305190000 0.0007220000 0.0195790000
C -0.4702840000 -0.0040190000 -1.4594910000
Cl 1.6371470000 0.3571460000 0.1874590000
H 0.2797170000 -0.5559750000 -2.0370070000
H -0.6625000000 0.8234780000 0.4950230000
C -0.4656390000 -1.3107680000 0.6931630000
H -0.0300670000 -2.1556060000 0.1538060000
H -0.0885740000 -1.3083990000 1.7188270000
H -1.5525890000 -1.3992160000 0.7077460000
N -0.2694330000 1.4317800000 -2.0225630000
O -0.0399890000 1.4855520000 -3.2351880000
O -0.4281340000 2.4092650000 -1.2988410000
N -1.7780850000 -0.4831810000 -1.6643580000
H -2.0693240000 -0.3721730000 -2.6284350000
H -2.4789160000 -0.0563950000 -0.9733020000
H -3.3382320000 0.4473100000 0.1866980000
