15
-1 1
C 0.4881578160 -0.0390928339 0.0676040879
H 1.5548916088 1.8026301389 0.3545220170
F -1.1545049614 -0.1435427526 0.3622531692
H 2.2517162111 -0.1056126820 -0.5090366216
C 0.5645431351 1.4797987931 0.0435122084
H -0.1594244465 1.8111832643 0.7937171837
C 0.4712789966 -0.7878004934 -1.1721415516
N 0.2595535654 -1.4403231335 -2.1354350908
N 0.8692271488 -0.7012224324 1.3018135499
H 1.7578028477 -1.1515193662 1.1440420681
H 0.1460055413 -1.3882358570 1.4814367664
C 0.2106330085 2.0462179364 -1.3219580910
H 0.9377789485 1.7113593938 -2.0663439178
H -0.7791983718 1.6982853772 -1.6236434307
H 0.2075389520 3.1413246472 -1.3067223471
