16
-1 1
C -0.2070060000 0.0121280000 0.0081810000
C -0.4650550000 0.2250110000 -1.4711500000
Cl 1.5210150000 0.4348750000 0.3265670000
H 0.3150330000 -0.2434530000 -2.0775050000
H -0.8134150000 0.7125250000 0.5811950000
C -0.4796300000 -1.4125740000 0.4377800000
H 0.0656580000 -2.1224470000 -0.1894870000
H -0.1743620000 -1.5473480000 1.4770780000
H -1.5513830000 -1.5916080000 0.3630620000
N -0.2724300000 1.7166180000 -1.8150700000
O 0.0878370000 1.9436690000 -2.9740810000
O -0.5632200000 2.5720930000 -0.9868470000
N -1.7512450000 -0.2384370000 -1.8378080000
H -1.9794710000 0.0058870000 -2.7919220000
H -2.4781550000 0.0693040000 -1.1802260000
Cl -3.7059890000 0.3872020000 0.6360850000
