15
-1 1
C 0.5793054818 -0.0509540362 0.0587782282
H 1.6303179393 1.7318513590 0.5676307907
F -1.2372257949 0.0589143517 0.1639280358
F 2.2936512895 -0.0695081151 -0.3620576469
C 0.6546856788 1.4623558998 0.1621727158
H 0.3845778360 -0.4879842194 -0.9016015958
C 0.7595332610 -0.9064695922 1.2826079348
H 1.1094514962 -1.8883357209 0.9588209761
H 1.5299959603 -0.4817834982 1.9254656344
H -0.1757561757 -0.9983907126 1.8270229772
N -0.3401207471 2.0545424348 1.1326729257
O -1.1639193236 2.8666855366 0.7334373882
O -0.1748136488 1.7282691339 2.3033792254
C 0.4894114099 2.0776197630 -1.1496878795
N 0.4009253375 2.5664074157 -2.2127997102
