14
-1 1
C -0.6397350000 -0.0432940000 -1.5057270000
C 0.0149030000 -0.1586870000 -0.1075630000
Cl 0.4456490000 1.0180840000 -2.5695300000
H 1.0892440000 -0.3069150000 -0.2208180000
H -0.4386380000 -1.0532840000 0.3415370000
C -0.6893740000 -1.3352220000 -2.1969800000
N -0.7368970000 -2.3895900000 -2.7133940000
N -1.9368250000 0.4960140000 -1.3465300000
H -2.3078330000 0.8484690000 -2.2189050000
H -1.8016280000 1.2451740000 -0.6588830000
N -0.2345920000 1.0586630000 0.6324030000
H -0.6401100000 0.8102360000 1.5264550000
H 0.7868760000 1.4147560000 0.8236320000
F 2.2107300000 1.4115640000 0.9527150000
