17
-1 1
C -0.0535280000 -0.0308990000 -0.0039290000
C -0.3321850000 -0.1222340000 -1.5016890000
Cl 1.8091160000 0.1520610000 0.0034050000
H 0.3873200000 -0.8153680000 -1.9369660000
C -0.5587730000 1.1252490000 0.7359990000
N -0.5800660000 2.0103700000 1.5151700000
C -0.3487250000 -1.3269330000 0.7359790000
H 0.0720550000 -1.2473910000 1.7401420000
H 0.1017930000 -2.1771220000 0.2217830000
H -1.4304770000 -1.4120380000 0.7751940000
N -0.1062930000 1.1577390000 -2.2445880000
O -0.4292460000 2.2150460000 -1.7226980000
O 0.3810910000 1.0213110000 -3.3677270000
N -1.6648090000 -0.6682390000 -1.9636450000
O -2.3410610000 0.0140390000 -2.7142550000
O -1.8345650000 -1.8522190000 -1.7023500000
F -2.3634340000 0.2987990000 -0.0460810000
