14
-1 1
C -0.1626283602 0.0885414330 -0.2974102037
C -0.2478107682 0.1773274923 1.1989332522
Cl 1.5147344237 -0.2591042888 -0.9489281009
H -2.4158797186 -0.9364104165 1.9933148911
H -1.3858133211 0.0563539114 1.4594466877
H 0.1224629646 1.1630142882 1.5004767168
N -1.0554664116 -1.0560454232 -0.7752963469
O -2.1621623294 -0.7344619722 -1.1932503859
O -0.6421198898 -2.1916233911 -0.5943288943
N 0.3197101738 -0.9108462172 1.9488379324
H 0.9936279085 -1.4403134505 1.4122078111
H -0.4860885737 -1.5065853674 2.1789551917
C -0.6050431710 1.3234794160 -0.9316869233
N -0.9135129270 2.3527139862 -1.4085116281
