15
-1 1
C -0.6170220000 -0.0133810000 -1.4939110000
C 0.0938420000 -0.1819610000 -0.1452710000
Cl 0.4194520000 1.0087880000 -2.6178280000
H 1.1657570000 -0.3171740000 -0.3085170000
H -0.3105670000 -1.1045960000 0.2857160000
N -0.7131020000 -1.3273760000 -2.2622410000
O 0.1003670000 -2.2068120000 -1.9964790000
O -1.5905080000 -1.4076870000 -3.1170570000
N -1.9027000000 0.4850110000 -1.2979210000
H -2.3262090000 0.8250150000 -2.1491070000
H -1.7881810000 1.2060970000 -0.5815730000
N -0.1701790000 0.9911980000 0.6657340000
H 0.7953130000 1.4287390000 0.8762630000
H -0.5152200000 0.6863510000 1.5692120000
H 2.2189650000 1.7147820000 1.1966190000
