14
-1 1
C -0.2371558307 0.0307702936 -0.2657413095
C -0.0300460193 -0.0639676147 1.1659456089
Cl 1.1693335595 0.7503449160 -1.2688696761
H -2.0503644534 0.9783080258 1.0599970825
H -1.3612344576 0.3677051635 1.4096143442
C -0.5131833977 -1.2729318259 -0.8436687803
N -0.7649150831 -2.3340944901 -1.2866959547
C -1.4523187329 1.0038821078 -0.6796440721
N -1.9784671630 1.4990771076 -1.6259986079
C 0.7019831418 1.0804406843 1.8189114638
H 0.1852315086 2.0201118311 1.5813666078
H 0.6956088525 0.9644556546 2.9080694699
H 1.7410903208 1.1854545333 1.4876543861
H 0.1997677546 -1.0625663866 1.5315294374
