15
-1 1
C 0.0225900000 0.0375410000 0.0068120000
C -0.5247840000 -0.0928800000 -1.4140510000
F 1.4185080000 -0.1352810000 -0.0579220000
H -1.6177430000 -0.0079730000 -1.3366550000
C -0.1453330000 1.4336460000 0.4921810000
N -0.2623810000 2.4933330000 0.9849880000
N -0.5358670000 -0.9573160000 0.8369920000
H -1.5496680000 -1.0166180000 0.6680210000
H -0.3718590000 -0.7501610000 1.8139990000
C -0.1979890000 -1.4361780000 -1.9290040000
N 0.1090000000 -2.4407040000 -2.4551000000
N 0.0124850000 0.9749540000 -2.2446290000
H 0.9782090000 0.7743350000 -2.4749990000
H -0.5163510000 1.0282950000 -3.1055580000
Cl -3.6076010000 -0.6315930000 -0.1302520000
