17
-1 1
C -0.2210127968 0.0003744768 -0.3556581953
C -0.0099381056 -0.0605170589 1.1383570640
Cl 1.3197604760 0.2883680732 -1.2481282146
H -2.1206216616 0.7999532585 1.9510627555
H -1.1480454611 -0.0036567410 1.5959269627
N -0.8636265622 -1.2888317858 -0.8997518582
O -0.4486034528 -1.8017018398 -1.9256383949
O -1.8499730191 -1.6384753906 -0.2638336285
N -1.1680230320 1.0237551965 -0.7030259532
H -0.6832579238 1.9091196932 -0.7632875769
H -1.8212133174 1.0843563444 0.0939497039
N 0.5239446351 1.1159601531 1.7127508987
H -0.2682015382 1.6672709006 2.0528609070
H 1.1147365813 1.6429382571 1.0849884947
N 0.6961393185 -1.2675649402 1.5899560659
O 0.8441401308 -2.1927996934 0.7754369236
O 1.0421757291 -1.3318289036 2.7698740457
