14
-1 1
C -0.2340650000 -0.0950170000 0.0061960000
C -0.4742970000 0.6022590000 -1.3415710000
F 0.8394510000 0.4762270000 0.6816490000
H 0.4808640000 0.5866700000 -1.8829940000
H -1.1376800000 -0.0064540000 0.6173850000
C 0.0939020000 -1.5150470000 -0.2092380000
N 0.3901850000 -2.6337000000 -0.4066590000
N -0.8343220000 1.9751040000 -1.0596390000
H -1.0468400000 2.4072010000 -1.9526610000
H -1.7122760000 1.9483660000 -0.5399750000
N -1.4753810000 -0.0775620000 -2.1540500000
H -2.3497000000 -0.0816940000 -1.6283170000
H -1.2056430000 -1.0364100000 -2.3459710000
Cl -3.6340360000 0.5871810000 0.3877100000
