16
-1 1
C -0.4780010000 -0.1270020000 -1.4796490000
C 0.0337350000 -0.1477640000 -0.0499170000
Cl -0.3647400000 -1.6979920000 -2.3302880000
H 1.1118430000 -0.3574680000 -0.1387420000
H 0.0915320000 0.5989360000 -2.0534120000
N -1.9043980000 0.3364680000 -1.5773940000
O -2.1165730000 1.3401710000 -2.2527340000
O -2.7618990000 -0.3130400000 -0.9842950000
C -0.6006260000 -1.1720310000 0.8774970000
H -0.0160690000 -1.1823510000 1.8013300000
H -1.6322050000 -0.9056300000 1.1148270000
H -0.5967890000 -2.1792910000 0.4539990000
N -0.0976390000 1.2276230000 0.4004470000
H 0.9099310000 1.5319020000 0.5227820000
H -0.5323920000 1.2400060000 1.3168770000
H 2.5031110000 1.3084490000 0.5171390000
