16
-1 1
C 0.0106690000 -0.0230170000 0.0089820000
C -0.5138710000 -0.0124970000 -1.4300810000
F 1.4183650000 0.0349060000 -0.0020230000
H -1.6128500000 0.0857320000 -1.2704150000
N -0.5247480000 1.0813550000 0.7059890000
H -1.5734970000 0.9737360000 0.5422880000
H -0.3198620000 0.9876870000 1.6951610000
C -0.2860930000 -1.3425770000 0.6426780000
N -0.4838700000 -2.3607500000 1.1947220000
C -0.1436830000 -1.2690710000 -2.2179330000
H -0.6446760000 -2.1390620000 -1.7894360000
H -0.4651180000 -1.1681790000 -3.2568230000
H 0.9362270000 -1.4382860000 -2.2045210000
C 0.0024520000 1.1748800000 -2.1057320000
N 0.4188380000 2.0771470000 -2.7326180000
F -2.8380970000 0.3023450000 -0.0487760000
