16
-1 1
C -0.4985890000 0.0095530000 -1.4828750000
C -0.1192180000 0.1964070000 -0.0238080000
Cl -0.4427760000 1.5988360000 -2.3198010000
H 0.9131190000 0.5635380000 -0.0028080000
H -0.7828640000 0.9470880000 0.4076460000
C 0.3681820000 -0.9864600000 -2.2031570000
H 0.1056610000 -1.0462380000 -3.2585630000
H 0.2392110000 -1.9610700000 -1.7345920000
H 1.4110910000 -0.6960270000 -2.0732330000
N -1.9676590000 -0.4131230000 -1.5402790000
O -2.2788480000 -1.3084930000 -2.3198980000
O -2.7508730000 0.1889100000 -0.8134670000
N -0.2588760000 -1.0939410000 0.6361500000
H -0.6297420000 -0.9591230000 1.5668910000
H 0.6849040000 -1.4753770000 0.7271160000
Cl 2.9978500000 -1.2988170000 0.3433650000
