15
-1 1
C 0.7875664089 -0.1092587918 0.0003822011
H 1.6425898951 1.8764969678 -0.0285714447
F -1.1932059689 -0.0556351052 0.0227566752
Cl 3.0483036902 -0.1383283857 -0.0245771995
C 0.6454636665 1.4279799318 -0.0089703996
N 0.7030418370 -0.7450157312 -1.2707647574
H -0.2689628062 -1.0191528527 -1.3582140458
H 1.3351853504 -1.5306257586 -1.3117578800
N 0.7316113359 -0.7287151113 1.2808453806
H 1.3600937132 -1.5175984802 1.3151702946
H -0.2395730200 -0.9961047143 1.3950504295
C -0.0255724359 1.9253800714 1.1960215816
N -0.4858423842 2.4265197565 2.1521464847
C -0.0640370245 1.9078018683 -1.1990310815
N -0.5545422575 2.3947863353 -2.1474062387
