15
-1 1
C -0.5961590000 -0.0742860000 -1.4629710000
C -0.0165520000 -0.1743560000 -0.0508850000
Cl 0.5795880000 0.8297750000 -2.5387850000
H 1.0528840000 -0.3838800000 -0.1032360000
H -0.5384280000 -1.0175470000 0.4179720000
N -0.6892630000 -1.4327710000 -2.1477040000
O 0.0326600000 -2.3355620000 -1.7350730000
O -1.4730130000 -1.5280250000 -3.0880880000
N -1.8727990000 0.4880010000 -1.4146010000
H -2.1887600000 0.8113380000 -2.3174180000
H -1.7785220000 1.2398090000 -0.7251460000
N -0.2534320000 1.0953030000 0.6193380000
H 0.7666780000 1.4857310000 0.7025790000
H -0.5645800000 0.8918700000 1.5616760000
F 2.2046250000 1.5256530000 0.7127330000
