16
-1 1
C -0.0976740000 -0.0618370000 -1.5210590000
C -0.0112270000 0.1143110000 0.0178390000
Cl -1.8139450000 -0.4937470000 -1.9746520000
H 1.0440360000 0.3816270000 0.1642900000
C 0.1636120000 1.2399110000 -2.1637600000
N 0.3831860000 2.2799410000 -2.6639280000
N 0.8030900000 -1.0389210000 -2.0491160000
H 0.4158720000 -1.9516710000 -1.8307240000
H 1.6813870000 -0.9348070000 -1.4368830000
C -0.1743650000 -1.2117990000 0.7615010000
H -1.0611400000 -1.7626450000 0.4394820000
H 0.7472960000 -1.7615730000 0.5771360000
H -0.2509000000 -1.0232630000 1.8348580000
C -0.9205810000 1.1469080000 0.4983870000
N -1.6531360000 1.9640710000 0.9199670000
F 2.5769950000 -0.6849790000 -0.2324700000
