18
-1 1
C 0.0475530000 -0.0489870000 -0.0153680000
C -0.4135640000 -0.1332370000 -1.5065860000
Cl 1.8198200000 0.3838970000 0.0227300000
H 0.3593620000 -0.7287560000 -2.0110150000
C -0.7232210000 0.9545100000 0.8241020000
H -0.4860530000 1.9649710000 0.4910120000
H -1.7998560000 0.8111020000 0.6940470000
H -0.4535030000 0.8578830000 1.8775940000
C -0.0339730000 -1.3900660000 0.5685410000
N -0.1090370000 -2.4748970000 1.0147980000
C -0.4907250000 1.2492430000 -2.1397980000
H -0.6411300000 1.1259740000 -3.2139240000
H -1.3554600000 1.7864340000 -1.7437360000
H 0.4193560000 1.8290670000 -1.9729740000
N -1.6886790000 -0.7872370000 -1.6827720000
H -2.4589320000 -0.2098250000 -1.3384460000
H -1.7200410000 -1.6937510000 -1.2332450000
Cl -4.0230230000 1.3199790000 -0.4560020000
