18
-1 1
C -0.5256420000 -0.0223340000 -1.4739890000
C -0.0545940000 -0.2048990000 -0.0144510000
Cl -0.2065400000 -1.5920830000 -2.3259780000
H 0.9958760000 -0.5280960000 -0.0424460000
C -2.0124960000 0.2647330000 -1.5577640000
H -2.3041890000 0.4439120000 -2.5953930000
H -2.2174190000 1.1560280000 -0.9612290000
H -2.6006940000 -0.5693670000 -1.1695730000
C 0.3039820000 1.0563530000 -2.1461250000
H 1.3708480000 0.8698080000 -2.0197850000
H 0.0531380000 1.1084520000 -3.2088080000
H 0.0820810000 2.0154520000 -1.6746530000
C -0.8458400000 -1.2451490000 0.6531530000
N -1.4968690000 -2.0429010000 1.2186300000
N -0.1913690000 1.0732470000 0.6906010000
H 0.7504710000 1.4815800000 0.6698330000
H -0.3993210000 0.8942340000 1.6662870000
Cl 2.9840900000 1.4135770000 0.3128440000
