14
-1 1
C -0.0441620000 -0.0032950000 -0.0149650000
C -0.3731760000 -0.0870870000 -1.5038260000
F 1.3742180000 -0.0948540000 0.0928080000
H 0.3446020000 0.5689410000 -2.0107610000
H -1.3839110000 0.2947670000 -1.6100320000
C -0.4039230000 1.3110650000 0.5370800000
N -0.4763660000 2.4168790000 0.9280110000
C -0.5997340000 -1.1054530000 0.7836620000
N -0.5946130000 -2.1027030000 1.4150390000
C -0.2755430000 -1.5134510000 -2.0251070000
H 0.6821970000 -1.9691830000 -1.7612880000
H -0.3774750000 -1.5320480000 -3.1144260000
H -1.0770480000 -2.1133120000 -1.5916690000
F -2.3439130000 -0.0895710000 0.2299710000
