18
-1 1
C -0.0196210000 -0.0106310000 0.0067720000
C -0.5093170000 -0.0532440000 -1.4592390000
F 1.3907700000 0.0710530000 -0.0193800000
H -1.6101630000 0.0076180000 -1.3120020000
N -0.5373740000 1.1235980000 0.7155700000
H -0.3038750000 1.9606110000 0.1875120000
H -1.5663800000 0.9738740000 0.6219120000
C -0.4260950000 -1.2633980000 0.7499050000
H 0.0400430000 -2.1553140000 0.3267650000
H -1.5162880000 -1.3022570000 0.6870940000
H -0.1119690000 -1.1514510000 1.7891730000
C -0.0960250000 -1.3000900000 -2.2440810000
H 0.9832070000 -1.4619230000 -2.1756810000
H -0.6126450000 -2.1763130000 -1.8498970000
H -0.3648410000 -1.2004310000 -3.2990370000
C -0.0452640000 1.1435760000 -2.1561750000
N 0.3336490000 2.0922370000 -2.7381400000
F -2.9083900000 0.1417380000 -0.0561680000
