15
-1 1
C 0.5423415080 -0.0476849377 0.0114453005
H 1.7223824428 1.7517256084 0.0619363475
F -1.0979157480 -0.0406583617 0.0090206089
H 2.4185935969 -0.2032633181 -0.1941460062
C 0.6704882134 1.4821442885 0.0224392709
C 0.7892685521 -0.7304431882 -1.2362918075
N 0.7281774880 -1.3540156699 -2.2402624206
N 0.6760378633 -0.7355577341 1.2721361026
H 1.5607068945 -1.2184550006 1.2719617957
H -0.1039941738 -1.3796203714 1.3370607321
C 0.0270491444 2.0042121145 1.2508428104
N -0.4544339518 2.5693310959 2.1617793816
N 0.0856966969 2.0277078374 -1.1963269632
H 0.0933882798 3.0397608645 -1.1537124672
H -0.8751968065 1.7083367726 -1.2283026855
