19
-1 1
C 0.4624504670 0.0078670477 -0.0125977336
H 1.4583737231 1.7062367023 -0.8119015359
F -1.2423906634 -0.0558631664 -0.3171443607
H 2.3499708623 0.1716746718 0.3288191621
C 0.6066685290 1.5570751855 -0.1388733317
C 0.8683127703 -0.8397200362 -1.2072181909
H -0.0301576067 -1.2697906207 -1.6620712386
H 1.3966252896 -0.2322153322 -1.9466426988
H 1.5437403040 -1.6390130776 -0.9065075311
C 0.2719028847 -0.6988257165 1.3239580157
H 1.2117525406 -1.0740712655 1.7193864725
H -0.1635101893 0.0060333044 2.0339871546
H -0.4345399778 -1.5209675631 1.1808019977
N 0.8385214537 2.1239591547 1.1839711754
H 1.0017688120 3.1157872068 1.0451328832
H 1.7079590002 1.6873967953 1.4872318878
N -0.5076550485 2.3216776215 -0.7099798809
H -1.3265449518 2.0105759589 -0.1988960171
H -0.6563281989 1.9509231293 -1.6430462298
