18
-1 1
C 0.0130570000 -0.0433790000 0.0463970000
C -0.5754530000 -0.3676760000 -1.3457890000
Cl 1.8204070000 0.1358610000 -0.1344620000
H -1.6520840000 -0.5150230000 -1.1790610000
C -0.5303340000 1.2688480000 0.5764450000
H -0.1297570000 1.4583240000 1.5756710000
H -1.6216980000 1.2258950000 0.5971530000
H -0.2531120000 2.0986060000 -0.0735120000
C -0.2398230000 -1.1831130000 1.0178020000
H -1.3206240000 -1.3096950000 1.1331290000
H 0.1928110000 -2.1181230000 0.6578650000
H 0.1927320000 -0.9518420000 1.9939030000
C -0.0114660000 -1.6358000000 -1.8459670000
N 0.4305450000 -2.6530270000 -2.2326210000
N -0.4742740000 0.6589610000 -2.3604070000
H 0.3802380000 1.1902350000 -2.2499990000
H -1.2918760000 1.2556570000 -2.2563780000
Cl -3.5712150000 1.1725200000 -1.1659610000
