14
-1 1
C 0.0003390000 0.0162550000 -0.0580870000
C -0.2000000000 0.3854030000 -1.5474250000
Cl 1.8204480000 -0.0754190000 0.2186800000
H 0.5084290000 -0.2338720000 -2.1051190000
H 0.1034170000 1.4313390000 -1.6736930000
C -0.4211260000 1.1307790000 0.8224360000
N -0.6840500000 2.0365960000 1.5238410000
N -0.5954830000 -1.2435260000 0.2384300000
H -0.3601150000 -1.4842590000 1.1970530000
H -1.6408630000 -1.0055630000 0.2325630000
N -1.5395490000 0.1703220000 -2.0606940000
H -1.6216740000 -0.8225770000 -2.2472310000
H -2.2198930000 0.3116040000 -1.2936720000
F -2.9248240000 -0.1845520000 0.1887530000
