16
-1 1
C 0.0341530000 -0.0434060000 -1.4933190000
C 0.1086290000 0.0597560000 0.0284610000
Cl 0.2202950000 1.5885080000 -2.2110750000
H 1.1553700000 0.3283880000 0.2013740000
H 0.0045580000 -0.9713370000 0.3861000000
N 0.9704640000 -0.9125640000 -2.0956870000
H 0.7331010000 -1.8468600000 -1.7746980000
H 1.8974440000 -0.6535100000 -1.5817210000
N -1.3971900000 -0.5365520000 -1.8245720000
O -1.5814760000 -1.7353770000 -1.6120620000
O -2.2719540000 0.2457930000 -2.1786260000
C -0.9144960000 0.9642260000 0.6993020000
H -1.9424770000 0.6386730000 0.5110290000
H -0.7586120000 0.9598620000 1.7821680000
H -0.8211970000 1.9937160000 0.3501380000
F 2.8735100000 -0.2451890000 -0.5595830000
