18
-1 1
C -0.0213470000 -0.0216100000 -0.0267610000
C -0.4997570000 0.0962520000 -1.4712840000
F 1.3632530000 -0.0830900000 0.0535610000
H -1.5660440000 0.3269550000 -1.3816960000
N -0.2768180000 1.3593560000 0.7060940000
O -0.1034280000 1.3253610000 1.9210900000
O -0.5876480000 2.3622950000 0.0721970000
N -0.6419580000 -1.0610160000 0.6205670000
H -0.3591750000 -1.0531650000 1.5943270000
H -1.7039590000 -0.7808890000 0.5114470000
N -0.4229350000 -1.2848720000 -2.0588410000
O -1.4734380000 -1.8255630000 -2.3938040000
O 0.6980650000 -1.7667240000 -2.2230440000
C 0.3143880000 1.0007940000 -2.3775020000
H 0.1934190000 2.0360130000 -2.0708200000
H 1.3674960000 0.7232200000 -2.3398650000
H -0.0387520000 0.8954720000 -3.4069480000
F -2.8076200000 0.0340150000 0.1250080000
