15
-1 1
C -0.0241570000 -0.0088320000 0.0027170000
C -0.6307540000 0.0631100000 -1.3762650000
F 1.3705650000 0.0684070000 -0.0447910000
H -0.3437790000 0.9984070000 -1.8576040000
H -1.7559260000 0.0806260000 -1.0980920000
N -0.3973770000 1.2784970000 0.7433450000
O -0.3916300000 2.3167130000 0.0894500000
O -0.5487970000 1.2155590000 1.9576710000
C -0.4597470000 -1.2051710000 0.7919900000
H -0.1487240000 -2.1052880000 0.2573220000
H -0.0114950000 -1.1919030000 1.7840710000
H -1.5492740000 -1.1271200000 0.8359380000
C -0.2325900000 -1.0664110000 -2.1894520000
N 0.0674900000 -1.9828760000 -2.8627590000
F -2.8214820000 0.1829220000 -0.0271230000
