15
-1 1
C -0.1135370000 -0.0710190000 0.0432850000
C -0.6578480000 -0.1912790000 -1.3732700000
F 1.2665920000 0.2222820000 -0.0175160000
H -1.7507260000 -0.2871400000 -1.2406930000
H -0.6173930000 0.8015610000 0.4660120000
C -0.2960440000 -1.2992530000 0.9013570000
H -1.3621730000 -1.5173190000 0.9999310000
H 0.1178500000 -1.1266070000 1.8978170000
H 0.2081070000 -2.1604930000 0.4568460000
C -0.1123760000 -1.3772720000 -2.0489270000
N 0.3295370000 -2.3395660000 -2.5590670000
N -0.4849970000 1.0088570000 -2.1733190000
H -1.2704200000 1.5971200000 -1.8303290000
H 0.3893680000 1.4456390000 -1.9018940000
H -2.7173990000 1.5778120000 -0.7073580000
