13
-1 1
C -0.1919931332 0.0198778893 -0.3498655454
C -0.1255102604 0.0353220074 1.1561377408
Cl 1.4911666908 -0.1868144242 -1.1032805749
H -2.5838281411 -0.5173967304 1.3700884184
H -1.3336089487 -0.0911402630 1.4313422732
H 0.3086390605 -0.9051511080 1.5085256896
N -1.0328472898 -1.0393526349 -0.8528923633
H -1.8814307811 -0.9835274037 -0.2527896860
H -0.5809564604 -1.9153987363 -0.6033289834
C 0.5298633639 1.1684979163 1.7512698848
N 1.0302134922 2.0982456314 2.2745706159
C -0.6907249795 1.3051076597 -0.8629333323
N -1.1059926132 2.3250701961 -1.2714141375
