14
-1 1
C 0.0285840000 0.0366740000 0.0214630000
C -0.5890620000 -0.0323820000 -1.3685860000
Cl 1.8383280000 -0.2456140000 -0.1502210000
H -1.6560270000 0.2054800000 -1.2986290000
H -0.4627590000 -1.0430810000 -1.7479410000
C -0.0778200000 1.3642950000 0.6546620000
N -0.1799800000 2.3523300000 1.2835750000
N -0.5467860000 -1.0110690000 0.7863930000
H -1.5566850000 -1.0874600000 0.5788720000
H -0.4117930000 -0.8556740000 1.7771950000
N 0.0546330000 0.8881560000 -2.3358840000
O 0.4739410000 0.4026200000 -3.3856950000
O 0.0998850000 2.0801560000 -2.0389920000
Cl -3.5912380000 -0.8931790000 -0.1496230000
