13
-1 1
C 0.7121798976 -0.0591144155 0.0172290958
H 1.8348427465 1.7980488486 0.1999582221
F -1.1802841813 0.2786382919 -0.2260397824
Cl 2.7061128090 -0.6242644986 0.2990439776
C 0.8185885695 1.4373209727 0.0373882309
H 0.3394735626 -0.6194043395 0.8504471698
H 0.3946622386 1.8489225560 -0.8688438197
N 0.5477260972 -0.7089189905 -1.2997190276
O 0.7732377702 -0.0348470462 -2.3002184126
O 0.2387691116 -1.8923828392 -1.2926565397
N 0.0232855614 1.9933901563 1.1677510503
O -0.5118633884 3.0830906144 0.9812073159
O 0.0396192055 1.3934106895 2.2367725195
