13
-1 1
C -0.4930810000 0.0175890000 -1.4269230000
C 0.0151710000 -0.0197730000 -0.0045690000
Cl -2.3872670000 0.4112680000 -1.3824070000
H 1.1087200000 -0.0185140000 -0.0095640000
H -0.2924960000 0.8822290000 0.5269160000
C 0.0370750000 1.1690620000 -2.1640820000
N 0.4203610000 2.0838160000 -2.7931000000
N -0.2341400000 -1.1669870000 -2.1245070000
H -0.6242670000 -1.1734510000 -3.0558350000
H -0.5072420000 -1.9876870000 -1.6001480000
C -0.4822810000 -1.1995500000 0.6746590000
N -0.8437840000 -2.1954630000 1.1855210000
H 2.6526360000 0.1192990000 0.0833300000
