16
-1 1
C -0.0981398963 -0.0002991773 -0.3004577793
C -0.1196597108 0.1109654112 1.1503074158
Cl 1.6040981216 -0.3299610544 -1.0927614817
F -2.4431654264 -0.5089959636 1.8392712413
H -1.3921339989 -0.0074324638 1.4465319763
H -0.4334207434 0.8947915863 -0.8167203082
C 0.4971126595 1.4154152837 1.6173856269
H 0.0943012580 2.2790134776 1.0747798355
H 0.2772899493 1.5452747880 2.6795410281
H 1.5904077970 1.4133188478 1.4996726921
N 0.4096692948 -1.0237695303 1.8983633874
H 1.0749844628 -1.5459003707 1.3375615681
H -0.3799992578 -1.6296144350 2.0902858885
N -0.9651868849 -1.1081952101 -0.8281119384
O -1.9268597516 -0.7584510300 -1.5121930373
O -0.6877978728 -2.2648801594 -0.5335661151
