15
-1 1
C -0.0626190000 0.0293010000 -0.0574860000
C -0.3114020000 0.1338690000 -1.5632000000
Cl 1.7561340000 0.0659020000 0.1877300000
H 0.2140140000 -0.6737770000 -2.0826980000
H -0.4403270000 0.9355580000 0.4162700000
N -0.6433480000 -1.1008910000 0.5580990000
H -0.5464590000 -1.9170790000 -0.0368000000
H -1.6697380000 -0.8921070000 0.6667230000
N 0.3824390000 1.3819100000 -2.1066810000
O 0.1684660000 2.4450420000 -1.5343310000
O 1.0741700000 1.2492150000 -3.1181400000
N -1.6970820000 0.2365770000 -1.8591820000
H -2.3079920000 0.1424380000 -1.0172760000
H -1.9773930000 -0.4630620000 -2.5310680000
H -3.1718940000 -0.3005600000 0.3989610000
