16
-1 1
C 0.4075191785 -0.0805527567 -0.0311721984
H 1.6999716284 1.5763000096 0.0918412093
Cl -1.6740004643 -0.1159671546 0.2483495388
H 2.4361224450 -0.3678560426 0.0267126684
C 0.6287094248 1.4313496584 -0.0385199758
H 0.6632748463 -0.5803346146 0.8884587197
N 0.4313349657 -0.7469126572 -1.3170028077
H -0.2740072874 -1.4740815565 -1.3073189029
H 1.3555888336 -1.1499432654 -1.3782028368
N 0.0485911840 2.0398989517 1.2112421992
O -0.5780294080 3.0967827535 1.1274425164
O 0.3227524100 1.4797534197 2.2705663304
C 0.1368473774 2.1305970537 -1.2822668427
H 0.6222205416 1.6636217386 -2.1383738010
H -0.9409451566 2.0177075520 -1.3902254345
H 0.3841694810 3.1922369105 -1.2455803826
