14
-1 1
C -0.2562370000 -0.1132780000 0.0247510000
C -0.3840520000 0.1074450000 -1.4911240000
Cl 1.1645430000 0.8164300000 0.6138160000
H 0.5596830000 -0.0985000000 -2.0060220000
H -1.1880140000 0.3885360000 0.4655390000
C -0.0896180000 -1.4990420000 0.4183910000
N 0.0164380000 -2.6058900000 0.8016660000
N -0.9042570000 1.3851280000 -1.7228730000
H -1.1903310000 1.5134940000 -2.6825570000
H -1.6592770000 1.5704920000 -1.0200130000
N -1.2747400000 -1.0541660000 -2.0310880000
O -0.6817730000 -2.0705350000 -2.3995760000
O -2.4881720000 -0.8823940000 -2.0819750000
F -2.3588670000 1.3920420000 0.4227490000
