16
-1 1
C 0.2145570000 -0.0622590000 0.0179330000
C -0.5607790000 0.1322270000 -1.2907220000
Cl 1.9686710000 0.1567810000 -0.1870770000
H -1.6507000000 0.0559560000 -1.0589310000
N -0.2945400000 0.9812640000 1.0388410000
O -1.1914290000 0.5961630000 1.7739370000
O 0.2088730000 2.0923460000 0.9943910000
C -0.0111920000 -1.3852390000 0.5917660000
N -0.1492510000 -2.4730220000 1.0151960000
C -0.1729070000 -0.9412790000 -2.1998300000
N 0.1526620000 -1.7837870000 -2.9517650000
C -0.3821640000 1.5036870000 -1.9390630000
H 0.6639790000 1.7201920000 -2.1632400000
H -0.8062900000 2.2694150000 -1.2933500000
H -0.9712860000 1.5067350000 -2.8559390000
Cl -3.6048900000 0.9848790000 -1.0362880000
