16
-1 1
C -0.0823942039 -0.1149288555 -0.2963336548
C -0.1700623087 0.0256094308 1.1572481006
F 1.2243493866 -0.2096464376 -0.8407211997
H -2.5861107739 -0.5079427604 1.4758642850
H -1.5679098110 -0.1763037272 1.3905531473
H 0.1804192634 -0.9134300446 1.6043559267
N -0.6345297315 1.1664249317 -0.9356142653
O 0.1404095144 2.1118465425 -1.0753774432
O -1.8315645604 1.1912098718 -1.2067438071
C 0.4554869883 1.2496174891 1.7942972762
H -0.0887138824 2.1620674329 1.5270027559
H 0.3984362731 1.1585317413 2.8851934167
H 1.5086139086 1.4178896000 1.5271259963
N -0.8228823620 -1.2083687419 -0.8622980999
H -1.7321506376 -1.1977837716 -0.3931767144
H -0.3459870628 -2.0476427016 -0.5510157205
