16
-1 1
C 0.3591565850 -0.0360185176 0.0727354051
H 1.7421889473 1.5639755403 0.2317977580
Cl -1.7053914019 0.0120580894 -0.0181761396
H 2.4528252805 -0.3716727943 -0.4353495445
C 0.6770232081 1.4536373856 0.0467804969
H 0.5341979934 -0.4871951922 -0.8856325944
C 0.5958791025 -0.8597825138 1.3221141812
H 1.5606592170 -0.6364186944 1.7626890518
H -0.1888122608 -0.6748778920 2.0568251039
H 0.5805531896 -1.9143348620 1.0417825530
N 0.0389183170 2.1634243304 1.2652007445
O -0.7368764294 3.0972374712 1.0619768273
O 0.4217684553 1.8119362314 2.3804330874
N 0.2980752269 2.0554562347 -1.1786395321
H 0.4955790806 3.0463269828 -1.1592305990
H -0.6959745112 1.9255382005 -1.3176667995
