16
-1 1
C -0.5187330000 0.1018190000 -1.4277430000
C 0.0195560000 -0.0313470000 -0.0500160000
Cl 0.1741600000 1.4431700000 -2.3189110000
H 1.1217730000 -0.0188500000 -0.0540750000
H -0.3023920000 -1.0018250000 0.3365420000
N -0.3158430000 -1.1598020000 -2.2769460000
O 0.3643790000 -2.0606720000 -1.8068130000
O -0.8578250000 -1.1517170000 -3.3775050000
N -2.0487070000 0.2364540000 -1.3900250000
O -2.5563870000 1.3427240000 -1.5168090000
O -2.6372930000 -0.8049430000 -1.1045450000
C -0.4167110000 1.1004530000 0.8676580000
H -1.4725000000 1.0418020000 1.1517750000
H 0.2100840000 1.0438230000 1.7605990000
H -0.2289380000 2.0734550000 0.4100220000
H 2.6875400000 0.2724120000 0.4834280000
