15
-1 1
C -0.0094190000 0.0034070000 0.0071000000
C -0.5407260000 0.1998780000 -1.4419430000
Cl 1.8073320000 -0.0120760000 -0.0337700000
H -1.6517270000 0.1902550000 -1.2152870000
N -0.4715930000 1.1406750000 0.7436310000
H -1.4977220000 1.0328720000 0.6755490000
H -0.2084020000 0.9821890000 1.7117440000
N -0.4549460000 -1.2352550000 0.5843480000
H -0.1451520000 -2.0237970000 0.0251830000
H -1.4812630000 -1.1451630000 0.5225940000
C -0.2043310000 -0.9281590000 -2.2996410000
N 0.0492040000 -1.8569680000 -2.9733950000
C -0.1322150000 1.4576580000 -2.0527130000
N 0.1733000000 2.4563260000 -2.5908320000
F -2.8042210000 -0.0042800000 -0.0349910000
