16
-1 1
C -0.4690010450 -0.0238751995 -0.1409744387
C -0.1099598504 0.1276824874 1.1901253548
Cl 1.3769284582 -0.6067003740 -1.4779156387
Cl -2.6533426779 0.0155089628 2.6492506787
H -1.4716827849 0.1550105310 1.7188861686
H -0.9611785068 -0.9348254776 -0.4500757289
C 0.4665856937 1.3860096983 1.7823426530
H -0.1110262855 2.2750639693 1.5363949426
H 0.4996002474 1.2602530496 2.8666770426
H 1.4887210541 1.5164311296 1.4121386157
N 0.4135832612 -1.0750578816 1.7843056212
H 0.6826186439 -1.7303933144 1.0592604316
H -0.2518870450 -1.5017027724 2.4187999945
N -0.9622929972 1.0995279799 -0.9295748101
O -0.4345737479 2.2049274566 -0.8072017512
O -1.9131624178 0.8529197549 -1.6780991358
