19
-1 1
C -0.4049291009 0.0457251444 -0.2448746185
C -0.1922683133 -0.0883911117 1.1200507574
Cl 1.8710072922 -0.1599382625 -1.1014237000
Cl -3.0857414195 -0.3057192242 2.0623184566
H -1.8025500443 -0.1602587331 1.5225160175
C -0.9232116698 -1.1726679303 -0.9588709754
H -0.5107277861 -2.0875582869 -0.5450622126
H -2.0158713278 -1.1933441284 -0.8366677060
H -0.6870201565 -1.1120505159 -2.0200601284
C -0.7439441389 1.3439665523 -0.9132485200
H -0.6821102080 1.2066559482 -1.9931141905
H -1.7646661722 1.6377150124 -0.6400672857
H -0.0750995799 2.1465939689 -0.6182493520
N 0.3141921953 -1.3150389826 1.5958802553
H 0.3620314664 -1.3034935379 2.6053854578
H 1.2581244613 -1.4166497358 1.2219203511
N 0.1860154895 1.0919279784 1.9052315406
O 0.9826100159 0.9253439020 2.8380680452
O -0.3670510033 2.1709519427 1.6673378076
