14
-1 1
C -0.1029174111 0.0540257186 -0.3118644997
C -0.0718273070 0.0028460999 1.1516979642
F 1.2039341049 0.1913352461 -0.9457327432
H -2.5215817079 -0.4189742324 1.4107375038
H -1.4897621459 -0.2247494262 1.3888659789
N -0.7149215457 -1.1051262674 -0.9314931431
H -1.6507572187 -1.1557447679 -0.5161954278
H -0.2109023156 -1.9049311764 -0.5565429601
C -0.8219697208 1.2743844086 -0.7577402506
N -1.3875535977 2.2544920010 -1.0720907374
N 0.4275711043 1.1755387242 1.8512197835
H -0.3340089926 1.8342174795 1.9789441004
H 1.1513223356 1.6495463411 1.3195798361
H 0.4017644181 -0.9299201487 1.4876845950
