18
-1 1
C 0.4698914630 -0.0807516710 0.0017068892
H 1.6846945714 1.6304626723 -0.0043666698
Cl -1.6728160199 -0.0399168444 0.0864107775
H 2.6440094284 -0.0233589801 -0.1486341590
C 0.6108638651 1.4586550213 -0.0009216869
C 0.6586572773 -0.8367296212 -1.3088452940
H -0.2885024457 -1.2786875918 -1.6391606718
H 1.0230034715 -0.1588597267 -2.0764895105
H 1.3998107382 -1.6181354082 -1.1733495100
C 0.6341217879 -0.8372610490 1.3126807532
H 1.6853000413 -0.9975594585 1.5206905300
H 0.1660235323 -0.2902329292 2.1338718016
H 0.1182433390 -1.7977740148 1.2246527947
C 0.0857379488 2.0704822690 1.2392842229
N -0.2500782297 2.6791754146 2.1884875494
N 0.0565022294 2.0662242060 -1.2065027446
H 0.2981965452 3.0499462027 -1.2115617663
H -0.9527095434 1.9801615090 -1.1807933056
