16
-1 1
C 0.6077523954 -0.0856944930 -0.0523543652
H 1.6721336848 1.7065500898 0.1303320350
Cl -1.5325024906 -0.4035688563 0.4619304643
F 2.5483592492 0.0064678984 -0.1527004226
C 0.6317975333 1.4215823196 0.0035997791
H 0.8552914361 -0.5556749637 0.8782619689
C 0.6218477834 -0.8233160523 -1.3684525635
H -0.3596779203 -0.8611875331 -1.8315685037
H 1.3387209022 -0.3469277023 -2.0341180961
H 0.9787782370 -1.8341673154 -1.1734662241
N -0.1013327251 2.0079281854 1.1773823699
O -0.9519130148 2.8659643781 0.9792507603
O 0.2873990592 1.6076267818 2.2661515861
N 0.1566784597 2.1389119707 -1.2184900907
O 0.7229012875 3.2123829449 -1.4346455706
O -0.7387138771 1.6588323474 -1.9033531270
