15
-1 1
C 0.5693576524 -0.0296694312 -0.0594733528
H 1.6888348603 1.7428123197 -0.2727592587
F -1.2240630579 -0.0141231842 -0.0474537708
F 2.4059929010 -0.1299230593 0.2771059424
C 0.6438882562 1.4893640478 -0.1029512462
H 0.5072457000 -0.5315910337 0.8855578863
C 0.7405139254 -0.7864724637 -1.3478696823
H -0.2017833084 -0.8434242013 -1.8895978195
H 1.4948562075 -0.2926514367 -1.9589503074
H 1.1059438004 -1.7881286501 -1.1197242348
C 0.2610933697 2.0407955433 1.2143817322
N -0.0536579763 2.5585606786 2.2212122049
N -0.1789802265 2.0273793057 -1.1876678062
H -0.2353292791 3.0349792772 -1.0969308278
H -1.0965628244 1.6211822878 -1.0297394595
