15
-1 1
C -0.1874270355 0.1094798613 -0.2981386414
C -0.1179977193 0.1203668924 1.2045975973
Cl 1.3466705564 -0.2251505160 -1.1294427155
H -2.1632676468 -1.1275793072 1.6833925955
H -1.2472021736 -0.0328262964 1.5252241920
H -0.8782344114 -0.7088455001 -0.5309742013
N -0.8503525796 1.3451919707 -0.8823270787
O -0.4255171404 1.8327856590 -1.9202760394
O -1.8479530828 1.7097598910 -0.2722724555
N 0.4719785324 -1.0292784664 1.7869219282
H 1.1440830699 -1.4746141846 1.1775762395
H -0.3259744882 -1.6517108683 1.9806194333
N 0.4657719964 1.3704108040 1.7332667250
O 0.5568442816 1.4836830242 2.9545326406
O 0.7801978409 2.2604270364 0.9271097804
