14
-1 1
C 0.5761015878 -0.0577555040 0.0158418572
H 1.6044778961 1.7025956092 -0.5405718848
F -1.2973154366 -0.0565213859 -0.7581259909
Cl 2.3657265420 -0.3856030247 0.8901623570
C 0.6256819647 1.4523159704 -0.1113033896
H -0.0527966880 -0.5203608711 0.7499661892
N 0.7768894355 -0.8341667098 -1.2213120135
O 1.1689068487 -0.2130771407 -2.2068072805
O 0.6103306192 -2.0439506757 -1.1573329223
N 0.4320526887 2.0254229135 1.2282738350
H 0.3508636464 3.0308468281 1.1321196022
H 1.2673546778 1.8272924727 1.7672313331
C -0.3747955429 2.0415113069 -1.0117302609
N -0.9687682394 2.8187902111 -1.6642214312
