18
-1 1
C -0.2384643080 0.1019107500 -0.3044114323
C -0.0195127567 -0.1166007064 1.1223125063
Cl 1.4118487254 0.5367118250 -1.2957484642
H -2.2429125938 0.5178019153 1.8564102246
H -1.2435058668 -0.0626133143 1.5110451740
N -0.7370328146 -1.1964907724 -0.9383880782
O 0.0719722080 -2.0718000518 -1.2317293218
O -1.9584802954 -1.3062423392 -1.0211130063
N -1.1521074238 1.1325281118 -0.6433651167
H -0.6700061046 2.0179248469 -0.5691397530
H -1.8759768869 1.1089739808 0.0959451035
N 0.4492186004 1.0708521111 1.8125522454
H -0.3767724721 1.6217294757 2.0563197239
H 1.0553357098 1.6222708105 1.2140432695
C 0.7043986171 -1.3645962446 1.5669591441
H 0.2018280636 -2.2816379082 1.2500104227
H 1.7329946642 -1.3944905665 1.1861235816
H 0.7430449341 -1.3496219237 2.6586737768
