16
-1 1
C 0.1206420000 0.0834480000 0.0406310000
C -0.5228950000 0.2520190000 -1.3692560000
Cl 1.9316320000 -0.0557210000 -0.1108410000
H -1.5939030000 0.3669810000 -1.1590130000
C -0.1415360000 1.2456320000 0.8909740000
N -0.3542950000 2.2017270000 1.5404650000
C -0.3188860000 -1.1381370000 0.7160100000
N -0.5765980000 -2.1472430000 1.2599280000
N -0.4081670000 -0.9271010000 -2.1875950000
H -1.2128020000 -1.5201360000 -1.9884110000
H 0.4617640000 -1.4233660000 -2.0410700000
C 0.0190660000 1.4871610000 -2.0760910000
H -0.5899970000 1.6367430000 -2.9682780000
H 1.0528180000 1.3362300000 -2.3946890000
H -0.0363840000 2.3871450000 -1.4573100000
Cl -3.4802590000 -1.1987710000 -1.1268220000
