12
-1 1
C -0.2099020000 0.1172040000 -1.3833070000
C -0.0975080000 -0.0468110000 0.1057400000
F -1.4834570000 0.4488720000 -1.8009330000
H 0.9875940000 -0.0746040000 0.2329760000
H 0.5255430000 0.8277290000 -1.7570950000
H -0.5615690000 -0.9756500000 0.4377700000
N 0.0936160000 -1.1799400000 -2.0974630000
O 0.3612790000 -1.0711350000 -3.2901370000
O -0.0360190000 -2.2398230000 -1.4901630000
C -0.6795400000 1.0904290000 0.7999950000
N -1.1317680000 2.0036380000 1.3839080000
H 2.5251510000 0.1932250000 -0.6845930000
