16
-1 1
C 0.6112155710 -0.0683308653 -0.0374275201
H 1.6006267679 1.7632481522 -0.3285368333
F -1.1763343625 -0.1493190924 -0.1961836381
F 2.3496954180 -0.0725737596 0.3384073963
C 0.5811614247 1.4599601130 -0.0842796638
N 0.8120326325 -0.7685755791 -1.2686491563
H -0.0198788540 -1.3147058242 -1.4401586271
H 1.6325713777 -1.3461284834 -1.1563158779
C 0.4240565370 -0.7735702104 1.2328789374
N 0.2862536619 -1.3662063032 2.2383362391
C 0.1726386625 2.0675124495 1.2549164794
H -0.8261887952 1.7184478662 1.5163551173
H 0.8813179185 1.7489381038 2.0214048573
H 0.1740544269 3.1592984395 1.2006369718
C -0.2829674056 1.9568146538 -1.1600607829
N -0.9010349813 2.5033203396 -1.9958238989
