13
-1 1
C -0.0928160000 0.1138340000 0.0424890000
C -0.3651890000 0.4279470000 -1.4299540000
Cl 1.6094580000 -0.3369590000 0.2678270000
H 0.2974410000 1.2368110000 -1.7613670000
H -0.8259650000 -0.7239710000 0.2609780000
N -0.3358900000 1.3332980000 0.8763660000
O -0.2652290000 2.4394180000 0.3370210000
O -0.5743920000 1.1391300000 2.0647770000
C -1.7494380000 0.8773870000 -1.6199140000
N -2.7746160000 1.4009500000 -1.8496710000
C -0.0942380000 -0.7518520000 -2.2578290000
N 0.2545580000 -1.5699330000 -3.0238030000
F -1.8968480000 -1.4653180000 -0.5280030000
