15
-1 1
C 0.6123784885 -0.0342266403 0.0463004637
H 1.5557182552 1.8179426649 0.3592936231
F -1.1724866839 -0.1609602685 0.3184437168
F 2.3603657476 -0.0729227175 -0.4358982968
C 0.5703067539 1.4779255519 0.0414464037
H -0.1695445345 1.7663892465 0.7881915772
C 0.3745778014 -0.8079010827 -1.1748383577
N 0.1883369902 -1.4566232832 -2.1371476183
N 0.8955387209 -0.6995963211 1.2883840017
H 1.7334453716 -1.2421941184 1.1335455010
H 0.0984444658 -1.2893146334 1.4817918328
C 0.2119998261 2.0532362025 -1.3192597373
H 0.9535047084 1.7482552071 -2.0606363423
H -0.7683489457 1.6857473326 -1.6279449760
H 0.1817630343 3.1476928596 -1.2880517917
