15
-1 1
C 0.5798837623 -0.0505699211 -0.0260762506
H 1.6446889522 1.7446586406 0.2901348628
F -1.1645775511 -0.0777496771 0.0701307416
F 2.3090351483 -0.2427069888 -0.2842120160
C 0.6341898636 1.4674531776 -0.0076394330
H -0.0620036746 1.7674306856 0.7774183323
N 0.4294532520 -0.9487645755 -1.2223801939
O 0.3847445337 -0.4309751588 -2.3300199585
O 0.3611162319 -2.1493239138 -1.0007930643
C 0.6904791444 -0.7269166967 1.2540548935
N 0.7827145922 -1.1989383940 2.3254750452
C 0.2467835994 2.1815044364 -1.2952754073
H 0.9584164813 1.9796104251 -2.0934365068
H -0.7419964171 1.8626132528 -1.6199165346
H 0.2269820813 3.2603547081 -1.1049645104
