17
-1 1
C 0.0813850000 0.0051380000 -0.0347640000
C -0.5232770000 -0.4624980000 -1.3998720000
Cl 1.7354020000 -0.7131010000 0.1412850000
H 0.2917490000 -0.3518360000 -2.1263920000
C 0.2833660000 1.4555050000 -0.0814150000
N 0.4282980000 2.6206660000 -0.1377140000
C -0.7574360000 -0.3854530000 1.1690340000
H -0.3360440000 0.0421980000 2.0808220000
H -0.7690120000 -1.4714490000 1.2486570000
H -1.7889660000 -0.0548050000 1.0363710000
N -1.6519950000 0.3291560000 -1.8465230000
H -2.4900620000 0.0754750000 -1.3234090000
H -1.4850890000 1.3259470000 -1.7843050000
N -0.8539160000 -1.8649820000 -1.2827290000
H -1.7572920000 -1.9312750000 -0.8082690000
H -1.0152130000 -2.2121770000 -2.2213300000
Cl -3.9946690000 -1.2517860000 0.0136480000
