14
-1 1
C -0.0246238250 0.0036549129 -0.4589915841
C -0.1677138069 -0.0020457501 1.0391447521
F 1.3315095525 -0.0150457144 -0.8471264842
H -2.5058767512 0.5779983984 1.5166843223
H -1.4245340281 0.0753067130 1.2319001190
H -0.4740488027 -0.9006201399 -0.8855918383
N -0.6248917962 1.1686305071 -1.0542737969
H -0.3106863476 1.9373871299 -0.4637730196
H -1.6226904006 1.0929187056 -0.8604325728
N 0.2108987946 1.2739717027 1.6325592767
H 1.0477811390 1.1983910183 2.1943369741
H -0.5756118328 1.5607316363 2.2220440961
C 0.3727928754 -1.1648143610 1.6872259827
N 0.7694252294 -2.1229247588 2.2527037728
