14
-1 1
C 0.2088256358 -0.0003021127 -0.1447370089
H 1.5108392708 1.5870102439 -0.6571996855
F -1.1448340493 -0.0744210093 -1.0072625607
H 1.7441090631 -0.1010243323 0.7863686544
C 0.5291193812 1.4885015985 -0.1854220657
H -0.1822543014 -0.4582805243 0.7462222121
N 0.9742663755 -0.8979873858 -1.0176232932
O 1.5652692745 -0.3973594611 -1.9783760064
O 0.8751357745 -2.1070605303 -0.8144715594
N 0.4731253404 2.0196658361 1.1843311387
H 0.8311171084 2.9693083974 1.1682061081
H 1.1524023359 1.4348850631 1.6740174886
C -0.4100893576 2.2820586631 -1.0042376739
N -1.0423218517 3.0423455537 -1.6376257483
