18
-1 1
C -0.2361210000 -0.0296840000 -1.4677090000
C -0.0267080000 0.0649930000 0.0492430000
F -1.6177400000 -0.2577260000 -1.7093770000
H 1.0591730000 0.2084800000 0.1600560000
C 0.1013950000 1.2749210000 -2.1675760000
H -0.5198840000 2.1007790000 -1.8122700000
H -0.0622150000 1.1524690000 -3.2427850000
H 1.1583150000 1.4896090000 -1.9886740000
N 0.5067840000 -1.1567360000 -1.9242110000
H 1.4699560000 -1.0483050000 -1.5116220000
H 0.6090120000 -1.0926790000 -2.9328910000
C -0.4141340000 -1.2265820000 0.7725560000
H 0.2419620000 -2.0253980000 0.4312680000
H -0.2971610000 -1.1045810000 1.8527360000
H -1.4488200000 -1.4946430000 0.5507030000
C -0.7506760000 1.2017550000 0.6099980000
N -1.3345100000 2.1021480000 1.0902330000
H 2.7924780000 -0.4470690000 -0.6566420000
