14
-1 1
C 0.3256604270 -0.1481703435 -0.0601848677
H 1.7011962527 1.2981021608 -0.0207033868
Cl -2.0211310103 0.0993601874 0.1529788700
F 2.4347218316 -0.4516787772 0.4625765384
C 0.6037088390 1.3289841869 -0.0190310497
H 0.3457911991 -0.7196970286 0.8450035135
N 0.4996410310 -0.7643601310 -1.2344363274
H 1.1028852568 -1.5631110586 -1.1232423862
H 0.7657689222 -0.1272698658 -1.9707305753
C 0.1849494620 1.9777495385 1.2321001364
N -0.0788215486 2.6216538772 2.1785559294
N 0.1020639599 1.9736938376 -1.2253692592
H 0.4089114496 2.9378781693 -1.2444618336
H -0.9128860719 1.9470352471 -1.1835253018
