16
-1 1
C 0.5837415974 -0.1017823022 -0.0127275428
H 1.6173504902 1.7216217023 -0.4242317040
Cl -1.6077402433 -0.3403500847 -0.3044955548
F 2.4677481643 0.0245375142 0.1523120331
C 0.6169619767 1.4295361131 -0.1258134755
C 0.8660565908 -0.8768654429 -1.2064033259
N 1.0980305163 -1.5812646196 -2.1198599485
N 0.5736263657 -0.6811521999 1.2915976268
H 1.4888039438 -1.0856296254 1.4283407707
H -0.1753340900 -1.3498127871 1.3794771094
N 0.3784049235 2.0619000406 1.2040537043
O 1.3272118773 2.7095796588 1.6511722827
O -0.7102880880 1.9176575985 1.7390741977
N -0.2918416002 2.0465899040 -1.1506163562
O -1.0273064127 2.9686647174 -0.8228511808
O -0.1126660117 1.6269098129 -2.2868286360
