13
-1 1
C 0.5324397319 -0.0680202373 -0.0337238115
H 1.6926447989 1.6894400506 -0.3468427560
Cl -1.7629459241 -0.0638518176 -0.3609314267
Cl 2.6283963730 -0.3468196660 0.6712432694
C 0.6473795777 1.4475995201 -0.1349316310
H 0.2300551728 -0.6120498924 0.8375220244
N 0.7537999260 -0.8330274235 -1.2705095205
O 1.0812935768 -0.1825598870 -2.2609239868
O 0.6222449044 -2.0464058241 -1.2065752587
C 0.3267157868 2.0185747881 1.1761256257
N 0.1071435805 2.4993686026 2.2240580654
C -0.1413255891 2.1179751646 -1.1785260342
N -0.6191019155 2.8142166219 -1.9950445593
