14
-1 1
C 0.5525239375 -0.0984436905 0.1588398469
H 1.6864574968 1.4005706289 1.1908667660
F -0.9958728810 -0.0721506647 0.5483180360
H 2.3196027747 -0.0853179788 -0.4307294385
C 0.9489604597 1.3518943242 0.3976587018
H 1.2923626683 1.8251265816 -0.5160745920
C 0.4177478133 -0.5118617034 -1.2300784730
N 0.1517234577 -0.9005408896 -2.3121087704
N 0.9322790699 -1.0701660211 1.1625418283
H 1.7682584963 -1.5386071821 0.8513643816
H 0.1593366086 -1.7183739800 1.2532868260
N -0.2169285503 2.1992213957 0.8802397546
O -0.9040273246 2.7557303564 0.0250628428
O -0.3819740269 2.3098188234 2.0939022898
