15
-1 1
C 0.0756900000 0.0636630000 0.0286950000
C -0.4154040000 0.0491010000 -1.4106470000
F 1.4696540000 -0.2021470000 0.0224050000
H 0.1772540000 0.7867900000 -1.9609030000
H -1.4624820000 0.3635450000 -1.4092760000
C 0.0032720000 1.4470810000 0.5823800000
N -0.0639140000 2.5309740000 1.0306650000
N -0.5780620000 -0.9022900000 0.8146980000
H -0.5551180000 -0.6847920000 1.8008240000
H -1.5468300000 -1.0638760000 0.5100310000
C -0.2961800000 -1.3336160000 -2.0428000000
H -1.0330730000 -2.0084630000 -1.6103210000
H -0.4926090000 -1.2649880000 -3.1163150000
H 0.7054840000 -1.7424560000 -1.8958670000
Cl -3.6011950000 -1.2287810000 -0.2809190000
