16
-1 1
C -0.1030760000 -0.0262570000 -1.4144940000
C 0.1325370000 -0.1857210000 0.1018730000
Cl -1.7612880000 0.4923640000 -1.7835610000
H 1.1830630000 -0.4915240000 0.1513150000
H 0.6145770000 0.7940940000 -1.7126520000
N 0.2104890000 -1.3097560000 -2.1097480000
O -0.6409840000 -1.9209700000 -2.7532400000
O 1.3719220000 -1.6952030000 -1.9566130000
C -0.7481240000 -1.2482590000 0.7377550000
H -1.8034910000 -0.9716760000 0.6649200000
H -0.6190840000 -2.2256720000 0.2633320000
H -0.4893390000 -1.3333900000 1.7954320000
N 0.0375560000 1.0868490000 0.7912100000
H -0.9164680000 1.4232930000 0.6961170000
H 0.6354120000 1.7115460000 0.2138200000
F 1.4922290000 2.0440980000 -1.2330090000
