15
-1 1
C 0.6663894982 -0.0083313385 0.0351373229
H 1.6867738372 1.8336898679 0.1743835475
F -1.1088948007 -0.0569197866 -0.2160495812
F 2.5433111906 -0.0432107568 0.0357743193
C 0.6552589492 1.5090042533 0.0473369051
H 0.7822480327 -0.4814051906 -0.9208767478
C 0.6574318009 -0.7838940493 1.3240068654
H 1.0348025348 -1.7890059728 1.1355297778
H 1.3343290839 -0.3139418559 2.0369534494
H -0.3515506255 -0.8323689687 1.7306937899
C -0.1251689313 2.0051350067 1.2053895142
N -0.6842208666 2.4828228010 2.1221337319
N 0.1295236839 2.0112431125 -1.2230031700
H -0.0170127413 3.0122332229 -1.1530196944
H -0.7737306459 1.5530196547 -1.3042000299
