15
-1 1
C -0.1568330000 0.0273290000 0.0394710000
C -0.5123230000 0.2959210000 -1.4146040000
F 1.0016190000 -0.7510840000 0.1351380000
H -1.4676880000 0.8178030000 -1.3942790000
H -1.0855720000 -0.5504330000 0.3710520000
C 0.0624950000 1.2568130000 0.8024170000
N 0.2201190000 2.2252290000 1.4494030000
C -0.6276320000 -0.9992010000 -2.1892460000
H -1.4043720000 -1.5475710000 -1.6462990000
H -0.9334700000 -0.8046420000 -3.2209080000
H 0.3208280000 -1.5343780000 -2.1878580000
N 0.4665350000 1.2366320000 -2.0466780000
O 1.5627960000 0.7882670000 -2.3827840000
O 0.1254780000 2.4159660000 -2.1718340000
F -2.4600860000 -1.1813710000 0.0303640000
