17
-1 1
C -0.6694280000 -0.0616040000 -1.4703400000
C 0.1819610000 -0.0313550000 -0.1988240000
Cl -2.3707280000 -0.2642960000 -1.1617690000
H 1.2209210000 0.0128770000 -0.5443710000
N -0.4016660000 1.2332970000 -2.2379190000
O -1.2765380000 2.0736500000 -2.3304040000
O 0.7363150000 1.2950030000 -2.6899750000
N -0.2519480000 -1.1400960000 -2.4685840000
O -0.7860000000 -1.0913120000 -3.5708500000
O 0.5833420000 -1.9602310000 -2.1061890000
N -0.0912780000 -1.1640800000 0.6639790000
H 0.3482790000 -1.9887400000 0.2649490000
H 0.4686700000 -0.9155020000 1.4983600000
N -0.0922570000 1.2255890000 0.4553550000
H -0.9802790000 1.1094620000 0.9391260000
H 0.6249820000 1.2319710000 1.2104290000
H 1.7324440000 0.2942610000 2.2853580000
