13
-1 1
C -0.0525310000 0.0115690000 -1.5043470000
C 0.0485210000 -0.0614420000 0.0201290000
F 0.0832510000 -1.3305340000 -1.9799190000
H 1.1100450000 -0.2587280000 0.2004100000
H -0.1669640000 0.9274480000 0.4321020000
C -1.4122980000 0.4001890000 -1.9661800000
N -2.4789410000 0.7328060000 -2.3284340000
N 0.9195750000 0.8864300000 -1.9784580000
H 0.9942740000 0.8296590000 -2.9859350000
H 1.8292550000 0.6683410000 -1.4448240000
C -0.8446440000 -1.0508950000 0.6034780000
N -1.5599010000 -1.8360460000 1.1044790000
F 2.7339370000 0.1755510000 -0.3672540000
