15
-1 1
C -0.0215370000 -0.0141580000 -1.5133950000
C 0.0829040000 0.1015730000 0.0218730000
Cl 0.3903900000 1.7223560000 -2.1793120000
H 1.1497100000 0.2992590000 0.1754820000
N 0.8320820000 -1.0061580000 -1.9518050000
H 1.7826150000 -0.8610890000 -1.4264510000
H 0.8801100000 -1.0589560000 -2.9602600000
C -1.4170710000 -0.1923210000 -1.9408180000
N -2.5359520000 -0.3722470000 -2.2539320000
C -0.1923980000 -1.2235200000 0.6079790000
N -0.4876990000 -2.2113520000 1.1729600000
N -0.7860780000 1.1296990000 0.5687270000
H -1.7189290000 0.7628290000 0.7168810000
H -0.4201620000 1.4301930000 1.4621550000
F 2.7171620000 -0.3979880000 -0.4426970000
