14
-1 1
C 0.4060211800 -0.0282872384 -0.0133981176
H 1.2410584135 1.7363832284 -0.7018573725
Cl -1.8222662600 -0.3213667262 -0.4537952326
F 2.2913416194 0.0879374451 0.5441263906
C 0.4244000583 1.4873366143 -0.0143282468
H -0.5077402480 1.8747420700 -0.4217011358
N 0.8239605225 -0.6943804922 -1.2057621342
H 0.2695052335 -1.5290812479 -1.3345390833
H 1.7952181929 -0.9252361566 -1.0246225901
C 0.2426918841 -0.7643416554 1.2298521210
N 0.1350956119 -1.4315147381 2.1929760766
N 0.6132392758 1.9846595649 1.3403192779
H 0.5924512863 2.9967799447 1.3320746616
H 1.5390432297 1.6688393874 1.6071453851
