13
-1 1
C 0.0685580000 -0.0037930000 -0.0114730000
C -0.5862270000 -0.0022840000 -1.3700460000
F 1.4530720000 -0.2758670000 -0.1724830000
H -0.3801940000 -0.9374780000 -1.8857570000
H 0.0518500000 1.0065550000 0.4118200000
H -1.6814240000 0.1016530000 -1.1834730000
N -0.5501650000 -1.0123740000 0.7699150000
H -0.3986740000 -0.8137550000 1.7510220000
H -1.5801230000 -0.9361900000 0.5590890000
N -0.0736860000 1.0827870000 -2.2293630000
O 0.0115520000 2.2149520000 -1.7499620000
O 0.2042730000 0.8137680000 -3.4007970000
F -2.9368140000 -0.4091300000 -0.1269870000
