15
-1 1
C -0.3199720000 -0.1478710000 -1.5783750000
C 0.1975190000 -0.0657260000 -0.1474550000
Cl 0.9888660000 -0.0215090000 -2.7380180000
H 1.1093750000 -0.6606450000 -0.0233940000
H -0.8604480000 -1.0743000000 -1.7622980000
N -1.3375430000 0.9559120000 -1.7843880000
O -1.1739090000 1.8193070000 -2.6317540000
O -2.2990650000 0.8660340000 -1.0222370000
N -0.8221560000 -0.8071240000 0.7286990000
O -1.1291350000 -1.9461330000 0.3757810000
O -1.2378770000 -0.2500450000 1.7373410000
N 0.5181730000 1.2278340000 0.2782330000
H -0.2298480000 1.6253750000 0.8326690000
H 1.3826370000 1.0525760000 0.8684510000
H 2.4909850000 -0.0255340000 1.2866410000
