17
-1 1
C 0.7246964795 -0.0437333255 -0.0347022245
H 1.5265601420 1.9127633297 -0.3670248917
F -1.2682877991 -0.0926598980 -0.0284488071
Cl 2.8858690619 -0.0338005131 0.3388334877
C 0.5625035955 1.4822555122 -0.0825705913
C 0.7852136501 -0.8083409308 -1.3369892414
H -0.2280543288 -0.8856301459 -1.7228035371
H 1.4298417108 -0.2809158296 -2.0419788788
H 1.2069522070 -1.7987514426 -1.1665116312
C 0.4450366027 -0.7598943816 1.1894132768
N 0.3148265581 -1.3587590418 2.1940759422
C 0.1443430717 2.0571696314 1.2672181144
H -0.8188304498 1.6283243444 1.5366608313
H 0.8917610545 1.7969065383 2.0195132480
H 0.0669648728 3.1459422985 1.2077372614
C -0.3767749894 1.8846582852 -1.1365284478
N -1.0085114395 2.3615155692 -2.0047839108
