13
-1 1
C -0.1865027309 -0.0391166524 -0.3374830391
C 0.4341630404 0.0799908537 1.0118453515
F 0.5247140936 -1.0444613878 -1.0048743423
H -1.3751743355 -1.2092453244 1.2101528935
H -0.4340235190 -0.7944554284 1.5256342753
H 1.4627870994 -0.2505119722 1.0949017152
C -0.1376829570 1.1638157219 -1.1677318224
N -0.0566440104 2.0849827092 -1.8928412515
C -1.6614817654 -0.5770917817 -0.2515425937
N -2.6468775208 -0.6320358666 -0.9205266115
N 0.1888618740 1.3060092826 1.6751941552
O 0.9811270206 1.6937434803 2.5500609329
O -0.8862062889 1.8764163659 1.4041203370
