12
-1 1
C -0.1495462539 0.0063247353 -0.3973203778
C -0.0878146678 -0.0260267431 1.1005111473
Cl 1.5187759820 -0.0609511153 -1.1902540047
H -2.5274659152 0.5339989071 1.3212193569
H -1.3327399469 0.1732844199 1.3574671050
N -0.8434830391 1.1632773617 -0.9127115546
H -0.3490255265 1.9847578284 -0.5742924752
H -1.7377417551 1.1523145035 -0.4017964057
C 0.4096720406 -1.2404294658 1.6803157917
N 0.7403644474 -2.2567805457 2.1795558825
H -0.6495290545 -0.8907467697 -0.7677991382
H 0.4250536889 0.8545668838 1.4996746728
