13
-1 1
C -0.2739570000 -0.0994710000 0.0711780000
C -0.6224240000 -0.3731960000 -1.3829750000
Cl 1.2602590000 0.8166500000 0.2126570000
H -1.4657080000 -1.0683500000 -1.3575040000
H -1.1190840000 0.5023680000 0.4882450000
H 0.2100750000 -0.8601830000 -1.8994600000
N -0.0828120000 -1.3537300000 0.8713250000
O -0.1553890000 -1.2573900000 2.0947590000
O 0.1282810000 -2.4077470000 0.2661250000
N -1.0611230000 0.8286030000 -2.0751970000
H -0.2891200000 1.4871710000 -2.0803580000
H -1.7795980000 1.2103410000 -1.4283920000
F -2.5457070000 1.2441100000 0.1020640000
