14
-1 1
C 0.8084611800 -0.0627307429 0.0145138340
H 1.6659467551 1.9194390396 0.1499017095
F -1.1225847358 -0.0343910481 -0.1388726259
Cl 2.9688886776 -0.2313787936 -0.0924579088
C 0.6959377912 1.4547903324 -0.0283379796
H 0.0352399494 1.6927194357 0.8045512086
N 0.6598810661 -0.8929697730 -1.2463644214
O 0.7338434934 -0.3184465142 -2.3209480586
O 0.5085733219 -2.0953478332 -1.0798614049
N 0.6711552614 -0.6918807815 1.2670379578
H 1.2889012694 -1.4882450579 1.3208663025
H -0.2996607453 -0.9811481550 1.2987708840
C 0.1040380681 2.0607818843 -1.2174651313
N -0.3344413524 2.7063980076 -2.0939043657
