14
-1 1
C 0.0256850000 0.0217040000 0.0287670000
C -0.5928120000 0.3327580000 -1.3229740000
F 1.4176600000 -0.1833760000 -0.1838530000
H -0.4477310000 -0.5408050000 -1.9530530000
H -1.6736080000 0.4838950000 -1.1803460000
C -0.0078880000 1.1577780000 0.9906820000
N -0.0462250000 1.9498000000 1.8579040000
N -0.5977670000 -1.1362150000 0.5155150000
H -1.6349950000 -1.0976790000 0.1997310000
H -0.5166460000 -1.1893720000 1.5225030000
N 0.0656240000 1.4688710000 -2.0025340000
O 0.0772920000 2.5559550000 -1.4252080000
O 0.5353130000 1.2724380000 -3.1250890000
F -2.8953560000 -0.6860630000 -0.4463000000
