17
-1 1
C -0.0722160000 -0.1645700000 -1.4184830000
C -0.0159730000 0.2580880000 0.0572090000
Cl -1.6920490000 -0.9647700000 -1.7424870000
H 0.9486320000 0.7669350000 0.1492720000
N -0.1220360000 1.1812720000 -2.2406620000
O -0.9733270000 1.3737730000 -3.0995740000
O 0.7994680000 1.9477050000 -1.9844770000
N 1.0191760000 -0.8928140000 -1.8183910000
H 0.8496540000 -1.4597070000 -2.6351360000
H 1.5764840000 -1.3774640000 -1.0344060000
N -0.1326460000 -0.9122640000 0.9088660000
H 0.7190000000 -1.4841230000 0.7413060000
H -0.0524040000 -0.5713640000 1.8627040000
N -1.0657340000 1.2381780000 0.2993670000
H -0.8302380000 1.7681880000 1.1296200000
H -1.9122750000 0.7138320000 0.4963860000
F 2.2254420000 -1.9174560000 0.1687780000
