18
-1 1
C 0.6249509669 -0.0769685197 0.0016803133
H 1.6433535256 1.7180714824 -0.4993819928
F -1.0077379988 -0.3209395106 -0.6277061690
F 2.3116354125 -0.0538771617 0.4505964594
C 0.6348052402 1.4542578536 -0.2000709793
N 1.0729777787 -0.8813733496 -1.2020430727
O 1.3759641231 -0.2654338592 -2.2187386227
O 1.1133545563 -2.0967777025 -1.0755554037
N 0.2765987979 -0.6923465244 1.2174486809
H 1.0723021717 -1.2161283289 1.5450748097
H -0.5371771309 -1.2645530057 1.0603320001
N 0.4818701900 2.0671992413 1.1629069841
O 1.4967074382 2.4748557097 1.7277791573
O -0.6546079069 2.1598426844 1.6216464856
C -0.3888825882 2.0877733717 -1.1185283811
H -0.2726269400 1.6660991162 -2.1144429393
H -1.3934310287 1.8896926895 -0.7646411312
H -0.2044966074 3.1679758135 -1.1597061988
