15
-1 1
C -0.5279400000 -0.0611790000 -1.4969990000
C 0.0601220000 -0.1563850000 -0.1023410000
Cl 0.3208060000 1.0644300000 -2.5159740000
H 1.1394730000 -0.3160150000 -0.1835550000
H -0.3937350000 -1.0341620000 0.3683310000
N -0.5594440000 -1.3972500000 -2.2369210000
O -1.3683950000 -1.5067420000 -3.1527760000
O 0.2501680000 -2.2443400000 -1.8803070000
N -2.0058630000 0.3082800000 -1.3768760000
O -2.6556820000 -0.5155030000 -0.7390110000
O -2.4265070000 1.3337500000 -1.8813620000
N -0.1875430000 1.1000290000 0.5635900000
H 0.7920420000 1.4017960000 0.8729340000
H -0.7235790000 0.9261640000 1.4057760000
H 2.2988070000 1.3083780000 1.1285650000
