17
-1 1
C -0.1328393237 -0.0067754211 -0.2969102769
C -0.1456558353 -0.0065331300 1.1688476079
F 1.2088457218 -0.1077909289 -0.8805811967
H -2.4712412867 0.7721703097 1.4539382248
H -1.5348033261 0.3072560581 1.3847236157
N -0.7157586843 1.1648661871 -0.9202701493
H -0.0859623627 1.9311501393 -0.7046030746
H -1.5774850366 1.3471096794 -0.3949585343
C 0.4765399656 1.2265672403 1.7832408429
H -0.2171053017 2.0800535515 1.7259100076
H 0.6485321090 1.0184607715 2.8418612463
H 1.4372910722 1.5290828891 1.3380889788
N 0.2748220864 -1.2506197596 1.8024736471
H 1.0585932697 -1.6702082799 1.3077126291
H -0.4883413432 -1.9184818003 1.7744189320
C -0.8213031093 -1.2189475108 -0.8080307469
N -1.3791086332 -2.1804699386 -1.1887718437
