18
-1 1
C 0.6475864518 -0.0692354863 -0.0084654786
H 1.6035196172 1.8090825242 -0.2624696412
F -1.1958185955 -0.1059724558 -0.0871816785
F 2.4710937965 0.0043632865 0.1755777519
C 0.5868046936 1.4668586176 -0.0613120096
C 0.8063343340 -0.8378673253 -1.3059309971
H -0.1602725985 -1.2092914086 -1.6393139004
H 1.2348553207 -0.1899579067 -2.0735483954
H 1.5063429796 -1.6569273965 -1.1414619323
N 0.5689932712 -0.7294506015 1.2661288520
H 1.4226816439 -1.2584101208 1.3676071032
H -0.2528530703 -1.3151052209 1.2393689215
C 0.1115892110 2.0623630355 1.2598402512
H -0.8852228123 1.6818396603 1.4726062210
H 0.7900335281 1.7415755572 2.0492210437
H 0.0958486780 3.1557013575 1.2052574183
C -0.2447516456 1.9490631093 -1.1688657335
N -0.8212548036 2.4456107741 -2.0641777962
