14
-1 1
C 0.5456204566 -0.0862332637 -0.0133183180
H 1.1791251699 1.8304030945 0.6594134161
Cl -1.7705605718 -0.4817554424 0.3910638529
Cl 2.8141511409 0.1961812217 -0.6401393487
C 0.3927929672 1.4217769351 0.0349063046
H -0.5872423981 1.6874546908 0.4262634912
C 0.3746801404 -0.9047147159 -1.1901974740
N 0.2886019616 -1.6770095695 -2.0764018525
N 0.8823831837 -0.6683594096 1.2511125739
H 1.8513983713 -0.9560865721 1.2288509171
H 0.2751283005 -1.4581267584 1.4196392112
N 0.4927723216 2.1200803192 -1.2728807930
O 0.9705432713 3.2527540243 -1.2468104040
O 0.0191156848 1.5712754461 -2.2616815767
