14
-1 1
C -0.1233069792 -0.0526109572 -0.3361920447
C -0.0936435815 0.0639721411 1.1585236856
F 1.1325394105 -0.1709851535 -0.9095729381
F -2.5664016017 -0.3839396729 1.3308732968
H -1.4407539896 -0.0589898754 1.4132840267
H 0.3871505107 0.9891634524 1.4812763529
N -0.9413432233 -1.0814228991 -0.8823962597
H -1.8063785069 -1.0580442924 -0.3391402474
H -0.4706726957 -1.9566109105 -0.6775077169
C 0.5350603319 -1.0867839707 1.7423575058
N 1.0246999731 -2.0411297470 2.2317677189
N -0.6466287748 1.2996809673 -0.8533739004
O 0.1412681005 2.2409554378 -0.7870009183
O -1.8000089740 1.3621254801 -1.2592385611
