12
-1 1
C 0.0433300000 0.0281110000 -0.0007080000
C -0.5444240000 0.2082200000 -1.3904480000
Cl 1.8803670000 -0.1921350000 -0.1250420000
H -1.6474410000 0.1960860000 -1.2017230000
H -0.0314330000 0.9698490000 0.5557770000
H -0.2927540000 -0.6691290000 -1.9916290000
N -0.5610010000 -1.1036110000 0.5984350000
H -1.5972100000 -0.9786290000 0.3972740000
H -0.4031880000 -1.0792630000 1.5989060000
C -0.0982970000 1.4173160000 -2.0614100000
N 0.2454440000 2.3958220000 -2.6132710000
F -2.9174300000 -0.3571600000 -0.1700750000
