15
-1 1
C -0.3660850000 0.1285480000 0.0621000000
C -0.4301370000 -0.0765160000 -1.4555920000
F 0.4172440000 -0.8938500000 0.6162160000
H 0.6069980000 -0.0703260000 -1.8188250000
H -1.3775080000 0.0502800000 0.4771380000
C 0.2674060000 1.4039570000 0.4275020000
N 0.7897840000 2.4233780000 0.6865960000
C -1.2252500000 1.0446040000 -2.1086040000
H -2.2364940000 1.0544830000 -1.6944160000
H -1.2903010000 0.8470600000 -3.1804030000
H -0.7600470000 2.0214790000 -1.9542850000
N -1.0298210000 -1.3591320000 -1.7958470000
H -1.9904940000 -1.3418130000 -1.4486400000
H -0.5527580000 -2.0851510000 -1.2721660000
Cl -3.7566150000 -0.6004330000 0.1396490000
