16
-1 1
C 0.5714125010 -0.0412172149 0.0494687296
H 1.4571741085 1.8320826373 -0.4779363064
Cl -1.7519438430 -0.2497491212 -0.4673838009
Cl 2.9147028076 -0.0315110742 0.3954401209
C 0.5223879137 1.4721302372 -0.0560443814
H -0.2708427718 1.7543742860 -0.7437176024
N 0.8272589288 -0.7882927024 -1.2469886999
O 0.9836760216 -0.1129426518 -2.2562034216
O 0.8655356702 -2.0101566151 -1.1833354217
N 0.3618883527 -0.7801812144 1.2278562059
H 1.2240765942 -1.2196528477 1.5142723371
H -0.3542130902 -1.4729181546 1.0670403379
C 0.2781832340 2.0881621918 1.3108481002
H -0.6746288392 1.7484005679 1.7170836363
H 1.0699214041 1.8060794790 2.0054696205
H 0.2593910079 3.1792821970 1.2246105460
