13
-1 1
C -0.3919440000 0.0771970000 0.1445510000
C -0.4676730000 0.3421750000 -1.3523690000
F 0.5673670000 -0.8767300000 0.4016830000
H -1.1716610000 1.1636800000 -1.4910330000
H -1.3982220000 -0.2702100000 0.4646870000
H 0.5234510000 0.6544620000 -1.7103020000
N 0.0187650000 1.3210820000 0.8680650000
O 1.0788530000 1.3452480000 1.4910830000
O -0.7596380000 2.2705910000 0.7704880000
N -0.9536500000 -0.8188930000 -2.0805170000
H -0.2958250000 -1.5742890000 -1.9156440000
H -1.8162730000 -1.0659240000 -1.5489060000
F -2.8084790000 -0.9885770000 -0.1825200000
