19
-1 1
C -0.2065090000 -0.0244050000 -1.4367820000
C -0.0017480000 0.0008280000 0.0822340000
Cl -2.0588440000 -0.1814360000 -1.7411050000
H 1.0959400000 -0.0008670000 0.1364050000
C 0.2522980000 1.2476620000 -2.1102260000
H 1.3199090000 1.3490490000 -1.8741760000
H -0.3099220000 2.1222770000 -1.7809820000
H 0.1381550000 1.1291340000 -3.1888040000
N 0.4501310000 -1.1333510000 -2.0455290000
H 1.4656730000 -0.9128410000 -1.9070480000
H 0.2690990000 -1.9331690000 -1.4428740000
N -0.4654250000 -1.2667820000 0.6533900000
H -0.0129220000 -1.4070890000 1.5486980000
H -1.4666510000 -1.2166680000 0.8086400000
C -0.5559640000 1.2267300000 0.8017820000
H -0.3666030000 1.1340370000 1.8766430000
H -0.0787420000 2.1485570000 0.4617430000
H -1.6363980000 1.3143910000 0.6496070000
H 2.9461340000 -0.2091240000 -1.0958250000
