15
-1 1
C -0.1907350000 -0.0350250000 -1.5051860000
C 0.0268080000 0.1643460000 0.0209920000
Cl -1.9678610000 -0.5262360000 -1.7473530000
H 1.0630800000 0.5359020000 0.1208290000
C -0.0778170000 1.2504160000 -2.2120300000
N 0.0760800000 2.2568140000 -2.8011350000
N 0.6594840000 -1.0429370000 -1.9833930000
H 1.5185620000 -1.1458380000 -1.4236380000
H 0.8582550000 -0.9642710000 -2.9698210000
N -0.0658250000 -1.0351340000 0.8128030000
H -0.7894980000 -1.6425240000 0.4482680000
H 0.8378120000 -1.5003130000 0.7627860000
C -0.8897270000 1.2024500000 0.5206020000
N -1.6000530000 2.0371620000 0.9416650000
Cl 3.1323050000 -1.2142660000 -0.0075030000
