19
-1 1
C -0.0122220000 -0.0288630000 0.0164880000
C -0.4697550000 -0.1421510000 -1.4627460000
F 1.3851780000 0.1212670000 -0.0192060000
H -1.4992730000 -0.5046050000 -1.4546470000
N -0.5370640000 1.1259580000 0.6802760000
H -1.5596110000 1.0751170000 0.6398550000
H -0.2598190000 1.9561850000 0.1688830000
C -0.3452040000 -1.2619530000 0.8236330000
H 0.0492720000 -1.1147150000 1.8297880000
H 0.0877400000 -2.1574710000 0.3798490000
H -1.4309490000 -1.3681450000 0.8704790000
N 0.3493240000 -1.1953860000 -2.1417040000
O -0.0174780000 -2.3669110000 -2.0207560000
O 1.3528030000 -0.8460450000 -2.7641270000
C -0.3753530000 1.1599410000 -2.2288350000
H -1.1874710000 1.8053650000 -1.8949530000
H -0.5090550000 0.9798780000 -3.2969580000
H 0.5937030000 1.6389320000 -2.0812510000
Cl -3.6314590000 0.5783600000 -0.3048640000
