16
-1 1
C -0.1637909635 -0.0672946914 -0.4801723059
C -0.1716673404 -0.0213811503 0.9790675031
Cl 1.5880034039 -0.0473830513 -1.2959882529
H -2.3558712936 -0.4719820293 1.9935776962
H -1.3792139542 -0.0296414820 1.3457582483
H 0.2840802209 0.8925324189 1.3665978521
C -0.8710043589 -1.2606028104 -1.0508111298
H -0.3413949219 -2.1422113919 -0.6947423074
H -1.8880299522 -1.2790151154 -0.6451001238
H -0.8971465395 -1.2359883142 -2.1389231820
N 0.2574553153 -1.2655592944 1.5857631903
H -0.5006608144 -1.5281856667 2.2260381742
H 1.1032374606 -1.1280105223 2.1221137006
N -0.7585200569 1.2303949415 -0.9894118486
O -0.2798160682 2.2790970791 -0.5660384271
O -1.7066701370 1.1630510801 -1.7728687873
