13
-1 1
C -0.0891940000 0.0380100000 0.0207120000
C -0.5169850000 -0.0743340000 -1.4649200000
Cl 1.7006520000 0.4328280000 0.0513440000
H 0.3837390000 -0.2575230000 -2.0650960000
H -0.5701790000 0.9069150000 0.4611040000
N -0.3381220000 -1.1994560000 0.6948920000
H -0.0261160000 -1.0980760000 1.6557970000
H -1.3798460000 -1.1437110000 0.6865420000
C -1.0863900000 1.1954190000 -1.9214410000
N -1.4395590000 2.2319730000 -2.3427440000
C -1.4305190000 -1.1846570000 -1.7646130000
N -1.9721520000 -2.1185760000 -2.2274650000
F -2.5521800000 -0.0725690000 0.0525230000
