17
-1 1
C -0.0225030000 0.0160430000 -0.0372870000
C -0.2884500000 0.1454220000 -1.5599200000
Cl 1.8059650000 -0.0516220000 0.1488500000
H 0.3816800000 -0.5749650000 -2.0391770000
C -0.5092120000 1.2070380000 0.7702010000
H -0.0796940000 2.1499430000 0.4258480000
H -1.6025540000 1.2174780000 0.7030300000
H -0.2435000000 1.0572120000 1.8199620000
N -0.5733140000 -1.2482510000 0.3725690000
H -0.2810590000 -1.4170870000 1.3317520000
H -1.6129800000 -1.0949770000 0.4151500000
C 0.1055520000 1.4791210000 -2.0505640000
N 0.4218320000 2.5365340000 -2.4516350000
N -1.6535520000 -0.1528530000 -1.9676460000
H -2.3218190000 0.0770510000 -1.2143250000
H -1.7208540000 -1.1634330000 -2.0180310000
H -3.2098000000 -0.4325080000 0.3686440000
