16
-1 1
C -0.1033380000 0.0392850000 0.0107040000
C -0.5940940000 0.1558100000 -1.4425540000
Cl 1.7056930000 0.2930840000 0.0688880000
H -1.6791670000 0.2343790000 -1.2587980000
N -0.6601230000 1.1446670000 0.9044390000
O -0.5723330000 0.9515120000 2.1055810000
O -1.0147510000 2.1823200000 0.3636580000
C -0.3782290000 -1.2517310000 0.6271670000
N -0.3040460000 -2.3330120000 1.0867260000
C -0.3373520000 -1.1048470000 -2.1350210000
N -0.1219530000 -2.0669300000 -2.7746590000
C -0.0133290000 1.2999190000 -2.2776320000
H 1.0377210000 1.1314310000 -2.5159750000
H -0.1207260000 2.2437540000 -1.7499030000
H -0.5731880000 1.3556470000 -3.2146120000
F -2.4059770000 -0.2529200000 0.3075670000
