16
-1 1
C 0.5295705798 -0.0223577090 0.0720217117
H 1.7516586925 1.7169422146 0.2630709961
Cl -1.8349632035 0.0810064444 -0.0178684745
Cl 2.7942838650 -0.4511629499 -0.5284412135
C 0.7064839086 1.4842887859 0.0599469726
H 0.3836136988 -0.4649959190 -0.8926931866
C 0.5938867675 -0.8612027914 1.3149205134
H 1.5237043787 -0.7008724605 1.8558458115
H -0.2356190466 -0.6416261730 1.9816586334
H 0.5468214866 -1.9093586087 1.0190084325
N 0.0125548414 2.1435469887 1.2846125821
O -0.7369318420 3.0919681105 1.0759076662
O 0.3531649580 1.7488774980 2.3966456194
N 0.2952107153 2.0448654294 -1.1687144378
H 0.4361260891 3.0451532719 -1.1689892889
H -0.6897958892 1.8442178679 -1.2992923376
