17
-1 1
C 0.0034610000 0.0205580000 0.0170070000
C -0.5014870000 0.0877080000 -1.4342970000
F 1.4020220000 0.2927170000 0.0142080000
H -1.5976270000 0.1897910000 -1.3527650000
N -0.7035180000 0.9304760000 0.7947470000
H -0.5833130000 0.7276370000 1.7818480000
H -1.7837900000 0.8287420000 0.5348590000
C -0.0538020000 -1.3937850000 0.4987440000
N -0.1267420000 -2.4831150000 0.9357630000
C -0.0638440000 -1.0734910000 -2.3007060000
H -0.5825060000 -1.9773960000 -1.9767940000
H -0.3222400000 -0.8833590000 -3.3442300000
H 1.0130970000 -1.2290960000 -2.2354910000
N 0.0009100000 1.3735110000 -2.0171670000
O -0.6580840000 2.3893800000 -1.8164750000
O 1.0426030000 1.3313290000 -2.6775140000
H -3.0360140000 0.4912480000 0.0517760000
