11
-1 1
C -0.0446160000 0.0109580000 0.0227430000
C -0.5431430000 0.2858000000 -1.3848590000
F 1.3567680000 0.0886510000 0.1067500000
H -1.6546370000 0.3047860000 -1.1453820000
H -0.4849470000 0.7353190000 0.7007570000
H -0.2762950000 -0.5296140000 -2.0621660000
C -0.4343960000 -1.3399990000 0.4510610000
N -0.5586710000 -2.4570250000 0.7895100000
C -0.0347820000 1.5435990000 -1.9014250000
N 0.3527430000 2.5660500000 -2.3323580000
F -2.5805200000 0.1138840000 0.1332720000
