19
-1 1
C 0.6121464948 -0.0604032215 0.0008204508
H 1.6477311690 1.5817247720 -0.7761164324
Cl -1.6723345059 -0.4837403388 -0.8722935016
Cl 2.9143081111 -0.2230763788 0.5615644365
C 0.7425134833 1.4514069505 -0.1782072172
N 0.9700707443 -0.9039190900 -1.1838525626
O 1.2235065335 -0.3008427569 -2.2229972561
O 1.0100072771 -2.1163867676 -1.0390072153
C 0.1450501766 -0.7045468978 1.2746104048
H 0.8829623825 -0.5735025996 2.0612360019
H -0.7896804440 -0.2435122046 1.5806216264
H -0.0147312583 -1.7645621233 1.0927153264
N 0.8699612399 2.0316473640 1.1630718793
H 0.8766544390 3.0402655856 1.0625016936
H 1.7731737732 1.7517536475 1.5312019136
C -0.3721624190 2.1854417005 -0.9112245338
H -0.5369278299 1.7551047437 -1.8947897721
H -1.3033707573 2.1483603761 -0.3508105920
H -0.0534386101 3.2301572392 -1.0279946503
