17
-1 1
C -0.2912360000 -0.0239240000 -1.4696680000
C -0.0435300000 -0.1101470000 0.0357530000
Cl -0.0223770000 -1.7267240000 -2.1751010000
H 1.0283630000 -0.3385860000 0.1074370000
N -1.7635050000 0.2277780000 -1.8329000000
O -1.9817120000 0.5505340000 -2.9944950000
O -2.6093260000 0.1017810000 -0.9537540000
N 0.4588070000 0.9783280000 -2.0419100000
H 1.4231160000 1.0075650000 -1.6706790000
H 0.4180050000 0.9756420000 -3.0510380000
C -0.7832830000 -1.1924980000 0.6834410000
N -1.3214220000 -2.0378170000 1.2956730000
C -0.2659300000 1.2247080000 0.7544140000
H -1.3010170000 1.5560650000 0.6658300000
H -0.0230780000 1.0980670000 1.8113770000
H 0.4129340000 1.9658440000 0.3381980000
Cl 3.1855010000 0.9343720000 -0.4782110000
