16
-1 1
C -0.1248000000 0.0059460000 -0.0001640000
C -0.4500720000 0.1911370000 -1.5311210000
F 1.2785710000 0.1575570000 0.1057020000
H 0.5091450000 -0.0899730000 -1.9833740000
C -0.6643260000 1.0226160000 0.9142200000
N -0.7636810000 1.9374800000 1.6473880000
C -0.4099800000 -1.3669140000 0.4372370000
N -0.4557110000 -2.5073740000 0.7151910000
C -0.7444550000 1.6541370000 -1.8212580000
H -1.7107680000 1.9191960000 -1.3871330000
H 0.0252160000 2.3085620000 -1.4036460000
H -0.7899240000 1.7934420000 -2.9027240000
N -1.4707780000 -0.6488550000 -2.1083810000
H -1.2120160000 -1.6243720000 -2.0086480000
H -2.3315910000 -0.5154700000 -1.5735880000
Cl -3.3404630000 -0.0024330000 0.3461200000
