16
-1 1
C 0.5919758026 -0.1275787836 -0.0033266795
H 1.5811412445 1.7159997141 0.1904494819
Cl -1.6735525807 -0.3601906899 0.0596142103
F 2.5141532378 0.0213188642 -0.0612722812
C 0.5412808442 1.4130002476 0.0735660072
N 0.6534327769 -0.7298510230 -1.2915852980
H 0.0353728806 -1.5250570520 -1.3360339379
H 1.6246796214 -0.9690263746 -1.4374302359
N 0.7443630035 -0.7493150999 1.2761960133
H 1.6916038403 -1.1023578516 1.2921938495
H 0.0502870107 -1.4691891425 1.4069531515
C -0.2415186775 1.9492854977 1.1789248905
N -0.7463876324 2.4906407126 2.0902372542
N 0.1110761775 2.0415549730 -1.2236346139
O 0.9723143133 2.0846178642 -2.0967576833
O -1.0284618627 2.4861481437 -1.3219741287
