18
-1 1
C 0.4731054477 -0.0379254883 -0.0506493415
H 1.5823900598 1.7725338668 -0.3171719527
F -1.1947243176 -0.1438680776 -0.0812753623
H 2.3291934774 -0.1121561407 0.3649395005
C 0.5542105268 1.4997386505 -0.0884797539
C 0.7859322062 -0.7746361408 -1.3439070929
H -0.1126316781 -0.7634121937 -1.9629845701
H 1.5990087959 -0.2950372563 -1.8835668325
H 1.0713022351 -1.8047429332 -1.1254072698
C 0.7098527866 -0.7101834179 1.1978040350
N 0.5931154203 -1.2956275847 2.2233563268
C 0.1671204319 2.0847822190 1.2661906635
H -0.8318730726 1.7378703651 1.5374554850
H 0.8696291402 1.7695305094 2.0416225507
H 0.1684705913 3.1803174642 1.2179376534
N -0.2774328938 1.9737322629 -1.2058172715
H -0.2997094286 2.9876063677 -1.1701043480
H -1.2130997284 1.6245975276 -1.0309624197
