13
-1 1
C -0.1290990000 0.1208200000 0.0062220000
C -0.4019130000 0.2216280000 -1.5149970000
Cl 1.2873600000 -0.9249140000 0.3756680000
H 0.4637240000 0.6824140000 -2.0087770000
H -1.0960670000 -0.3087580000 0.4064610000
C 0.1210100000 1.4533940000 0.5288110000
N 0.3137700000 2.5440050000 0.9243160000
N -1.6125400000 0.9701200000 -1.7942360000
H -1.4598520000 1.9344170000 -1.5174100000
H -2.3066390000 0.5372850000 -1.1430720000
C -0.5366840000 -1.1331830000 -2.0753920000
N -0.5992560000 -2.1931100000 -2.5747740000
F -2.6555420000 -0.4915030000 0.1103870000
