13
-1 1
C -0.0902900000 0.0338080000 0.0072150000
C -0.5698780000 0.0225040000 -1.4413260000
Cl 1.6490150000 -0.2771590000 0.1344280000
H -1.6496410000 0.2412190000 -1.3742720000
H -0.6518760000 -0.7065640000 0.5738240000
N -0.3863370000 1.3622540000 0.6615730000
O -0.1951950000 1.4094570000 1.8687170000
O -0.7859360000 2.2766430000 -0.0508130000
C -0.4223250000 -1.3307790000 -1.9829890000
N -0.2819060000 -2.4031060000 -2.4392160000
C 0.1425880000 0.9684840000 -2.3025440000
N 0.7114640000 1.6906140000 -3.0329000000
Cl -3.1413120000 -0.6012610000 0.2099160000
