19
-1 1
C -0.1858076759 0.0030382302 -0.3532960636
C -0.2797422909 -0.1430944485 1.0941765713
F 1.2461201739 0.1855930206 -0.8377959756
H -2.5468765019 0.2983703176 1.9856695421
H -1.7653121017 0.0405350118 1.5414462336
C -0.6550464044 -1.2184891545 -1.1158264962
H -0.1306324100 -2.0944245201 -0.7386580602
H -1.7282042712 -1.3659473409 -0.9579881785
H -0.4613569357 -1.0927889063 -2.1865956600
C -0.8592985515 1.2689665565 -0.8535137028
H -0.7809124043 1.3414604368 -1.9431930083
H -1.9143409334 1.2666586290 -0.5600744891
H -0.3891491383 2.1516519330 -0.4175989967
N 0.2496748722 0.9692624234 1.8653529131
H -0.5146588007 1.5762345746 2.1707894492
H 0.9048358129 1.5235530632 1.3238420543
N 0.1326518965 -1.4409406792 1.6053520211
H -0.4378578857 -1.6268507332 2.4292661355
H 1.0883535501 -1.3646484141 1.9537657108
