19
-1 1
C -0.0433260000 -0.0114540000 -0.0272290000
C -0.3451960000 0.2947210000 -1.5055510000
F 1.3831490000 -0.0916540000 0.0591300000
H -0.0200860000 1.3363340000 -1.6736430000
C -0.4699960000 1.1198420000 0.8774700000
H -0.1831850000 0.8952410000 1.9085490000
H 0.0240070000 2.0476410000 0.5739930000
H -1.5547490000 1.2494300000 0.8407660000
C -0.6025590000 -1.3433800000 0.4174370000
H -0.3523680000 -2.1182990000 -0.3091670000
H -1.6859900000 -1.2649700000 0.5299540000
H -0.1724320000 -1.6063770000 1.3875080000
N -1.7318270000 0.2029650000 -1.9062730000
H -2.0168780000 -0.7664330000 -1.8187370000
H -2.3565400000 0.7261550000 -1.2934810000
N 0.3865650000 -0.6558420000 -2.3411270000
H 0.1816710000 -0.4149350000 -3.3040410000
H 1.3786060000 -0.5424230000 -2.1773460000
Cl -4.0943060000 0.8454040000 0.4819710000
