14
-1 1
C -0.1685510186 -0.0465118595 -0.4890178577
C -0.2367795443 0.0198585616 0.9860474680
Cl 1.5570007006 -0.0347224659 -1.1946693592
H -2.2801500566 -0.2926490189 2.3711000305
H -1.3698704536 0.1012600516 1.3901979050
H 0.2806024364 0.9219252741 1.3282374800
C -0.8142860746 -1.2273551926 -1.0453608864
N -1.3185285255 -2.1819695885 -1.5091712753
N 0.1661482177 -1.2314692127 1.5820347537
H -0.5734038770 -1.4256922257 2.2714727911
H 1.0511674180 -1.1406969039 2.0619700821
N -0.8197355174 1.2112915750 -1.0597249258
O -0.3230819910 2.2774565251 -0.7196542668
O -1.8151717141 1.0706744804 -1.7642719392
