16
-1 1
C -0.1835991592 -0.0627109953 -0.2974096299
C -0.1719130874 0.0527834226 1.1492780287
Cl 1.6170028056 -0.2173721114 -1.1236839751
H -2.5830596607 -0.5668299662 1.4009576706
H -1.4207155253 -0.1145318890 1.3677667828
H 0.1870085829 -0.8956502779 1.5616876099
N -0.9313021750 -1.1490083944 -0.8145453385
H -1.8132643630 -1.1432922278 -0.2659691097
H -0.4322850543 -1.9948985992 -0.5644875256
N -0.7373791743 1.2241535408 -0.9004642688
O -0.0562056297 2.2431964321 -0.8100873633
O -1.8753233879 1.1737373861 -1.3605938840
C 0.4421122253 1.2506877252 1.8380923573
H -0.1191222647 2.1654033090 1.6373738789
H 0.4319957856 1.0873113295 2.9207419624
H 1.4765000819 1.4241513161 1.5220728042
