17
-1 1
C -0.0082340000 -0.0009810000 0.0113220000
C -0.5761060000 0.0060140000 -1.4195780000
F 1.3889610000 0.0843290000 -0.0315270000
H -1.6892060000 0.0189880000 -1.2309070000
N -0.5272530000 1.1708870000 0.6465150000
H -0.3024230000 1.1137040000 1.6349450000
H -1.5557310000 1.0553470000 0.5383190000
C -0.3757270000 -1.3091810000 0.6877580000
H 0.0589670000 -2.1727610000 0.1787230000
H -1.4664150000 -1.3489820000 0.6862190000
H 0.0009260000 -1.2826640000 1.7149520000
C -0.1149000000 -1.1220440000 -2.2100420000
N 0.2130590000 -2.0607970000 -2.8358180000
N -0.1768740000 1.2714070000 -2.1184160000
O 0.9548740000 1.3208080000 -2.6010050000
O -1.0033040000 2.1767460000 -2.1555870000
F -2.8815400000 0.1259780000 -0.0919490000
