16
-1 1
C 0.3343687687 -0.0303129460 0.0741532176
H 1.5261157513 1.5919916331 0.6702960283
Cl -1.7375208164 -0.2456467005 0.6546011937
F 2.0828829001 -0.1155281158 -0.5979044648
C 0.5569990692 1.4648272506 0.1958744548
H 0.0979183695 -0.4993845821 -0.8597904422
N 0.8517534834 -0.9516003515 1.1093847012
O 1.3370706717 -0.4595100874 2.1212744303
O 0.7649577781 -2.1476919834 0.8637558634
N -0.3909775720 2.2033411241 1.1209789771
O -1.2599579148 2.9160857282 0.6231238878
O -0.1821073107 2.0952830792 2.3255832354
C 0.5093895194 2.0907584199 -1.1829245066
H 1.2772842481 1.5992857452 -1.7742212624
H -0.4742547572 1.9467190194 -1.6312177872
H 0.7035178116 3.1635527671 -1.1297075263
