15
-1 1
C -0.2483747684 0.0135313241 -0.2976318522
C -0.2054693141 0.0450680443 1.1584132429
Cl 1.5879673029 -0.0340937421 -1.1485440155
H -2.5170732536 -0.8351827278 1.4133403597
H -1.4316036304 -0.1838836464 1.3799368442
H 0.1074426062 1.0102830902 1.5625025143
N -0.9405067725 -1.1067808598 -0.8698893430
H -1.7763430986 -1.2111977160 -0.2543526331
H -0.3726951942 -1.9314218862 -0.7068164815
C 0.4421387976 -1.1481271977 1.8282959883
H 1.4294641067 -1.3770034014 1.4140019614
H 0.5521111606 -0.9580342571 2.8998981401
H -0.2062085109 -2.0261228141 1.7288001257
C -0.7803502930 1.2650061627 -0.8430779892
N -1.2377591382 2.2686796275 -1.2503568622
