19
-1 1
C -0.0204040000 0.0078400000 -0.0207880000
C -0.3831100000 -0.0258950000 -1.5108620000
Cl 1.8071860000 -0.0040640000 0.0788470000
H 0.0464840000 -0.9379450000 -1.9424430000
C -0.5432770000 1.2151700000 0.7330730000
H -1.6379500000 1.1666100000 0.7265850000
H -0.2055040000 2.1463620000 0.2841190000
H -0.1963490000 1.1608640000 1.7689140000
C -0.5249250000 -1.2742740000 0.6204210000
H -1.6223150000 -1.2439080000 0.6209630000
H -0.1648910000 -2.1531590000 0.0783250000
H -0.1684320000 -1.3319910000 1.6522160000
N 0.4159210000 1.0416200000 -2.2975000000
O 1.1139010000 0.6261050000 -3.2267910000
O 0.2739410000 2.2256050000 -2.0117900000
N -1.7593620000 0.1752770000 -1.7392110000
H -2.4236420000 0.0605470000 -0.9072860000
H -2.0955480000 -0.4281560000 -2.4781060000
H -3.4633230000 -0.1952330000 0.1873470000
