15
-1 1
C -0.0124530000 0.1038430000 -1.4847250000
C 0.0477620000 -0.0446680000 0.0491350000
Cl -1.7647490000 0.3758040000 -1.9576170000
H 1.1367080000 -0.1708460000 0.1778600000
N 0.8068680000 1.1448500000 -2.0111370000
H 0.4985080000 2.0209640000 -1.5975040000
H 1.7472010000 0.8880940000 -1.5822360000
C 0.3810120000 -1.1803090000 -2.0864900000
N 0.6577140000 -2.1951570000 -2.6069960000
N -0.7048520000 -1.1891370000 0.5258120000
H -0.3601220000 -1.4701360000 1.4340370000
H -1.6898540000 -0.9670710000 0.6024560000
C -0.3435990000 1.2281550000 0.6752300000
N -0.6869910000 2.2066040000 1.2301750000
F 2.6597350000 0.1015930000 -0.5730140000
