14
-1 1
C -0.0240950000 0.0304720000 -0.0719670000
C -0.2858810000 -0.0876890000 -1.5911160000
Cl 1.8127680000 0.2326450000 0.1250470000
H 0.4680260000 -0.7519040000 -2.0283340000
H -0.2534470000 -0.9403350000 0.3676610000
N -0.7380520000 1.0165110000 0.6278820000
H -0.7595320000 1.8845800000 0.1046460000
H -1.7082100000 0.6105050000 0.7323910000
C -0.0919670000 1.2326280000 -2.2223410000
N 0.0612450000 2.2878370000 -2.7141330000
N -1.6246210000 -0.5846790000 -1.8872300000
H -2.2448020000 -0.3979320000 -1.0644040000
H -1.5611110000 -1.5951250000 -1.9343660000
F -2.9062080000 -0.3647300000 0.4480530000
