17
-1 1
C -0.5222030000 0.0694010000 -1.5843980000
C 0.2101790000 -0.0202910000 -0.2317110000
Cl -0.2902870000 -1.4796930000 -2.4985950000
H 1.2833410000 -0.1202250000 -0.4576370000
C -1.9613780000 0.2347360000 -1.3723390000
N -3.1111270000 0.4336480000 -1.2362200000
C 0.0215170000 1.2014190000 -2.4433930000
H -0.1076280000 2.1354140000 -1.8990220000
H -0.4941230000 1.2384800000 -3.4047110000
H 1.0871300000 1.0342480000 -2.6127730000
N -0.3095460000 -1.1195980000 0.5655300000
H 0.2541940000 -1.0968220000 1.4166150000
H -0.0949450000 -2.0005440000 0.1094530000
N 0.0341840000 1.2474470000 0.4459790000
H -0.8381020000 1.1810010000 0.9648870000
H 0.7809060000 1.2823830000 1.1419280000
Cl 2.3504160000 -0.0887710000 2.3779740000
