18
-1 1
C 0.5818549079 -0.0933608879 -0.0794041281
H 1.5534311484 1.6109277821 -0.8810247835
F -0.8904603899 -0.3902362327 -0.8502503147
H 2.3366521695 0.0572263924 0.5359843052
C 0.6898418479 1.4413622281 -0.2238096654
C 1.3825323832 -0.8847044459 -0.9808217459
N 1.8681937941 -1.5660720344 -1.8150788320
C 0.1074356263 -0.7099589912 1.2297709754
H 0.8701879847 -0.7036936080 2.0016016447
H -0.7576794737 -0.1383325922 1.5682978901
H -0.2160257391 -1.7328173619 1.0259109707
N 0.8966483360 2.0401075631 1.1031960856
H 1.0771235343 3.0313299197 0.9691002295
H 1.7598041786 1.6052291859 1.4320266452
C -0.5256319965 2.1165854702 -0.8543718209
H -0.7227255218 1.7144071446 -1.8454406755
H -1.4127232804 1.9674754247 -0.2396585790
H -0.3283295095 3.1944750432 -0.9356282013
