15
-1 1
C 0.6806432118 -0.0155550109 -0.0783601537
H 1.6584173761 1.8810436979 -0.2886806681
F -1.3161606283 0.0185131966 -0.0257019666
Cl 2.8321161325 -0.2486144762 0.4534656788
C 0.6491438962 1.5090999059 -0.1057271555
H 0.4455584077 -0.5283095071 0.8314738856
C 0.7313080522 -0.7482784311 -1.3877226469
H -0.2497316421 -0.6825616345 -1.8500071510
H 1.4836430868 -0.3103434484 -2.0436684380
H 0.9919624360 -1.7922239687 -1.2114781453
C 0.2395762435 2.0091464569 1.2241106115
N -0.0891661021 2.5007161156 2.2391518091
N -0.2156794280 1.9841518977 -1.1833399905
H -0.3063533464 2.9908472904 -1.1095388078
H -1.1079276958 1.5314579161 -0.9788368617
