16
-1 1
C 0.7690109891 0.0273211310 0.0395335617
H 1.6093927837 1.9660755765 0.3301978078
F -1.0821490939 -0.2718544004 0.5500189152
Cl 2.8568505928 0.1111683016 -0.7792389183
C 0.6353139126 1.5689052500 0.0667889200
C 0.3653231334 -0.8269632017 -1.0626169149
N 0.1017021960 -1.5927918071 -1.9163252114
N 1.1598205845 -0.5113852612 1.3117678577
H 1.9498360423 -1.1288309893 1.1872873178
H 0.3449902008 -1.0206097419 1.6316734757
N -0.3619243721 2.1210264481 0.9355268666
H 0.0301273765 2.1174913004 1.8688059779
H -1.1261036173 1.4464065577 0.9260345386
N 0.3607251045 2.1086400904 -1.3088386935
O 1.0924487159 3.0064589571 -1.7203112825
O -0.6269145487 1.6707617888 -1.8943042183
