18
-1 1
C 0.3878206438 -0.0891071626 0.0491496901
H 1.7078482186 1.5822952197 0.2400856236
F -1.2462950694 0.0770766156 0.3901393594
H 2.1914917271 -0.2631989374 -0.4672905349
C 0.6450152807 1.4336997157 0.0515380089
N 0.0893076367 -0.7679712850 -1.1991156431
H -0.7560458426 -1.3072691631 -1.0475875752
H 0.8802921847 -1.3474285670 -1.4272979211
C 0.7807166791 -0.8300073512 1.3219205955
H 1.6183438501 -0.3331580733 1.8119120530
H -0.0798576162 -0.8682694895 1.9990782360
H 1.1009541922 -1.8433326170 1.0789488823
C -0.0785578381 2.1191369676 1.1368150860
N -0.5452576634 2.7567155127 2.0075420145
C 0.2916797555 2.0535764514 -1.2941208544
H 0.9169854936 1.5844018609 -2.0540441259
H -0.7527447642 1.8461558236 -1.5255693610
H 0.4617431318 3.1348144789 -1.2815835336
