12
-1 1
C -0.0889910000 0.1749470000 -0.0052370000
C -0.6651960000 0.1515020000 -1.4208740000
Cl 1.6075260000 -0.4294810000 0.0292120000
H -1.6763650000 0.5527510000 -1.2907180000
H -0.0684850000 1.1819160000 0.4164840000
H -0.7453200000 -0.5170340000 0.5412180000
N -0.8395640000 -1.1774700000 -1.9816640000
H 0.0535140000 -1.6572850000 -1.9214040000
H -1.4789890000 -1.5896010000 -1.2587950000
C 0.0763890000 1.0426110000 -2.3299910000
N 0.6645460000 1.7694030000 -3.0408460000
F -2.2782840000 -1.4812490000 0.1753250000
