12
-1 1
C -0.2046060000 -0.0519340000 -1.4554140000
C -0.0165840000 0.0585580000 0.0480070000
Cl -1.9956230000 -0.4250390000 -1.8145140000
H 1.0649580000 0.1585560000 0.1935560000
H -0.0962460000 0.9339680000 -1.9231480000
H -0.3243650000 -0.8838420000 0.5065090000
N 0.6379770000 -1.0789060000 -1.9232110000
H 1.5931020000 -0.9269700000 -1.4623570000
H 0.7601900000 -0.9984200000 -2.9266810000
C -0.7400700000 1.1674760000 0.6535110000
N -1.3039880000 2.0680900000 1.1535170000
H 2.8361170000 -0.4147270000 -0.6635640000
