13
-1 1
C 0.6316530037 -0.0725355005 0.0055191888
H 1.4536764684 1.8342746169 0.4898090810
Cl -1.7205947373 -0.2928134689 0.1993318700
Cl 2.9581660876 0.0313276789 -0.4473570520
C 0.5386080629 1.4489582755 0.0425664448
H -0.3015663919 1.7298843132 0.6758252737
C 0.5118645940 -0.8188763719 -1.2272220609
N 0.4218968326 -1.4702362057 -2.2051430398
N 0.8491355810 -0.7077850484 1.2708471782
H 1.7249990476 -1.2109743287 1.2359124511
H 0.0814301192 -1.3388721433 1.4546040589
C 0.3628116486 2.0602897283 -1.2689580214
N 0.2167896837 2.6035284546 -2.2989553724
