18
-1 1
C -0.7323160000 0.0855200000 -1.4891890000
C 0.1270200000 0.0863370000 -0.2366640000
Cl -0.1792670000 1.4458720000 -2.6470720000
H 1.1763500000 0.1006400000 -0.5505830000
N -0.4448920000 -1.1713510000 -2.3082580000
O 0.7263540000 -1.4535950000 -2.4917460000
O -1.4124830000 -1.7743160000 -2.7670910000
N -2.1048230000 0.1406560000 -1.2227160000
H -2.3362940000 1.0183430000 -0.7795570000
H -2.6577630000 -0.0093030000 -2.0552270000
N -0.0922220000 -1.1863620000 0.4217380000
H 0.6904150000 -1.2318070000 1.1288190000
H -0.9588230000 -1.1236860000 0.9492260000
C -0.1290190000 1.3042230000 0.6489890000
H 0.5712880000 1.2031910000 1.4825120000
H 0.0311180000 2.2572030000 0.1341660000
H -1.1444460000 1.2776620000 1.0620570000
H 1.9343220000 -0.7706730000 2.1408670000
