13
-1 1
C 0.5935935560 -0.0601747020 0.0554683283
H 1.7019269587 1.7397902735 0.3919425837
Cl -1.7530159403 -0.0328742280 0.1538418607
Cl 2.7629791359 -0.2997851662 -0.5384970818
C 0.6837753091 1.4564403377 0.1172373095
H 0.3569778380 -0.5385809313 -0.8745693118
C 0.7060486402 -0.8561483208 1.2416057267
N 0.7998330512 -1.5486497927 2.1888412695
N -0.1458918755 2.1028570368 1.2167111586
O -0.8339669218 3.0710803409 0.9266574565
O 0.0528948245 1.6557049642 2.3372962657
C 0.3565513658 2.0401241219 -1.1763600291
N 0.1627240581 2.5139260660 -2.2327755363
