10
0 1
C -1.6672860000 1.0112640000 0.0000000000
H -0.6362460000 1.3614920000 0.0000000000
H -2.1828060000 1.3614930000 0.8929070000
H -2.1828060000 1.3614930000 -0.8929070000
F -1.6672860000 -0.3717360000 0.0000000000
C 5.0018580000 -2.9008664000 0.0000000000
H 3.9708180000 -3.2510944000 0.0000000000
F 5.0018580000 -1.5178664000 0.0000000000
H 5.5173780000 -3.2510954000 -0.8929070000
H 5.5173780000 -3.2510954000 0.8929070000
