12
0 1
C -0.6899600000 -2.0911500000 0.6608100000
C -0.6899600000 -2.0911500000 -0.6608100000
H -0.0438600000 -1.4298700000 1.2235800000
H -1.3309900000 -2.7525700000 1.2292500000
H -0.0438600000 -1.4298700000 -1.2235800000
H -1.3309900000 -2.7525700000 -1.2292500000
C -0.7599376670 1.3225621670 -0.0000000000
C 0.5509423330 1.4135421670 -0.0000000000
H -1.2621776670 0.3658621670 -0.0000000000
H -1.3466876670 2.2278321670 -0.0000000000
H 1.1238323330 2.3308121670 -0.0000000000
F 1.3432023330 0.3320721670 -0.0000000000
