12
0 1
C 2.1389600000 0.0375000000 0.0042100000
O 1.5597200000 1.1891700000 -0.3319800000
F 1.8916200000 -0.9393200000 -0.8986300000
F 3.4454600000 0.2085800000 0.0763100000
F 1.7074900000 -0.4355900000 1.1833300000
H 0.6114400000 1.0397800000 -0.4461400000
O -0.8360857500 0.0549721670 -0.7858012500
C -1.9348157500 0.0249621670 0.0053987500
H -0.6573657500 -0.8183278330 -1.1449212500
F -1.8174757500 -0.8751878330 0.9809087500
F -3.0308257500 -0.2803578330 -0.6880312500
F -2.0816657500 1.2222521670 0.5379687500
