24
0 1
C -1.0549200000 1.3813400000 -0.4615700000
C -0.2198500000 0.7432200000 -1.3618100000
C -1.8503000000 0.6383100000 0.3925700000
F -1.0763600000 2.7033900000 -0.4025400000
C -0.1780800000 -0.6393500000 -1.4064100000
F 0.5450000000 1.4549600000 -2.1728400000
C -1.8084900000 -0.7440800000 0.3480900000
F -2.6336400000 1.2498400000 1.2679600000
C -0.9718600000 -1.3823200000 -0.5504100000
F 0.6254400000 -1.2500700000 -2.2613700000
F -2.5528000000 -1.4566000000 1.1801800000
F -0.9167300000 -2.7045600000 -0.5786100000
C 1.4659641670 -0.5748116250 2.0813229580
H 0.8027441670 -1.0245216250 2.8081129580
C 2.2312441670 -1.3797416250 1.2495129580
C 1.5506741670 0.8053883750 1.9813129580
H 2.1631541670 -2.4567416250 1.3266129580
C 3.0799341670 -0.8034516250 0.3166529580
C 2.4001041670 1.3817983750 1.0484429580
H 0.9534941670 1.4327583750 2.6291029580
H 3.6722541670 -1.4300916250 -0.3356270420
C 3.1638341670 0.5776483750 0.2158329580
H 2.4625441670 2.4582183750 0.9672729580
H 3.8213541670 1.0273783750 -0.5150870420
