10
0 1
C -1.6672860000 1.0112640000 0.0000000000
H -0.6362460000 1.3614920000 0.0000000000
H -2.1828060000 1.3614930000 0.8929070000
H -2.1828060000 1.3614930000 -0.8929070000
F -1.6672860000 -0.3717360000 0.0000000000
C 1.5005574000 -0.9167838800 0.0000000000
H 0.4695174000 -1.2670118800 0.0000000000
F 1.5005574000 0.4662161200 0.0000000000
H 2.0160774000 -1.2670128800 -0.8929070000
H 2.0160774000 -1.2670128800 0.8929070000
