24
0 1
C -1.0549200000 1.3813400000 -0.4615700000
C -0.2198500000 0.7432200000 -1.3618100000
C -1.8503000000 0.6383100000 0.3925700000
F -1.0763600000 2.7033900000 -0.4025400000
C -0.1780800000 -0.6393500000 -1.4064100000
F 0.5450000000 1.4549600000 -2.1728400000
C -1.8084900000 -0.7440800000 0.3480900000
F -2.6336400000 1.2498400000 1.2679600000
C -0.9718600000 -1.3823200000 -0.5504100000
F 0.6254400000 -1.2500700000 -2.2613700000
F -2.5528000000 -1.4566000000 1.1801800000
F -0.9167300000 -2.7045600000 -0.5786100000
C 1.6241383330 -0.5747332500 2.1598159170
H 0.9609183330 -1.0244432500 2.8866059170
C 2.3894183330 -1.3796632500 1.3280059170
C 1.7088483330 0.8054667500 2.0598059170
H 2.3213283330 -2.4566632500 1.4051059170
C 3.2381083330 -0.8033732500 0.3951459170
C 2.5582783330 1.3818767500 1.1269359170
H 1.1116683330 1.4328367500 2.7075959170
H 3.8304283330 -1.4300132500 -0.2571340830
C 3.3220083330 0.5777267500 0.2943259170
H 2.6207183330 2.4582967500 1.0457659170
H 3.9795283330 1.0274567500 -0.4365940830
