18
0 1
C -5.7387210200 -0.0618155900 0.0050331300
H -5.4151205200 -1.1132614100 -0.0031963200
H -5.3856814500 0.4027417900 -0.9275213600
H -6.8373235700 -0.0511403300 -0.0111970300
C -5.1960277800 0.6752545100 1.2315653400
H -5.5652042300 1.7144225800 1.2322417600
H -5.5916094600 0.2083885900 2.1489048100
C -3.6615928600 0.6841375500 1.2854031800
H -3.2597993500 1.1730672700 0.3847726400
H -3.2889857400 -0.3526526700 1.2829914800
C -3.1416663100 1.4067810300 2.5257697500
H -3.4355975400 0.9109616000 3.4618195100
H -3.4888097900 2.4506392900 2.5699347900
O -1.0101550400 2.1809195400 3.8676839600
O -0.8976323600 -0.0113477700 2.7228740400
H -0.4652627800 -0.2351450200 1.8745035100
S -1.3508983200 1.5594813200 2.6108502800
O -0.8365585600 2.0605821700 1.3485145200
