16
0 1
C 0.8778033800 0.4247855900 0.0319361600
H 1.0860589300 1.0373305700 -0.8584307900
H 1.1685959500 0.9861781500 0.9338434300
C 1.5590878800 -0.9366458400 -0.0463734300
H 1.1973359100 -1.4977397900 -0.9183553300
H 2.6467387800 -0.8138869900 -0.1447544200
H 1.3649103900 -1.5362372600 0.8541902200
C -1.3613517500 2.0089688300 0.0473795600
H -0.8438683600 2.4206208900 -0.8323886000
H -0.9410529500 2.4604961000 0.9595776100
C -2.8715031600 2.1939534400 -0.0469800200
H -3.3816597500 1.8000964100 0.8435968600
H -3.1205646500 3.2604656500 -0.1378276800
H -3.2671981600 1.6730358800 -0.9290152900
S -0.9529314300 0.2114326100 0.1080314200
O -1.3838175000 -0.3804406200 -1.2070989800
