18
0 1
C -0.6087268600 0.6259730700 0.1336418800
C 0.7643189400 0.6091095000 0.0111500300
C 1.2860773700 1.9336239500 -0.1404869100
C 0.3159728800 2.9056556800 -0.1303305300
S -1.2530960700 2.2227381100 0.0656004200
H -1.2752828600 -0.2232617900 0.2566461500
H 2.3465261700 2.1554663400 -0.2599678400
H 0.4359456000 3.9801015500 -0.2326409600
C 1.6097262200 -0.6373499500 0.0555409100
H 2.2995413800 -0.6440603400 -0.8064667700
H 0.9631428800 -1.5215321500 -0.0627722900
C 2.4318424300 -0.7820031700 1.3504320600
H 3.0767760000 0.1034631600 1.4714624300
H 1.7441780000 -0.7762288100 2.2115568000
C 3.2851299900 -2.0517237700 1.3698603100
H 3.9980126200 -2.0674038500 0.5311172900
H 3.8641656900 -2.1314269300 2.3007906500
H 2.6597228800 -2.9536890300 1.2879894900
