17
0 1
C -2.1179115323 -0.4861184975 0.2199212500
C -0.7484673327 -0.0485857689 -0.1417720931
O -0.5415972880 1.2333714088 -0.1248774884
C 0.8866673442 1.4980430607 -0.2953303542
C 1.5497976733 0.1505521174 -0.1923751444
C 1.3394625212 -0.5761491322 1.0949902524
C 0.4588999943 -0.8987042669 -0.1011037911
H -2.8769973393 0.1503260487 -0.2292894693
H -2.1938583471 -0.4060338734 1.3097893407
H -2.2627197999 -1.5246488781 -0.0629120415
H -0.8580526985 -0.6922967185 -1.8542409725
H 1.0028865602 1.9602557589 -1.2760589322
H 1.1452933266 2.2152034168 0.4844173878
H 2.4314677424 -0.0147857288 -0.7988563372
H 0.9597908114 -0.0070531359 1.9410787613
H 2.0509760658 -1.3446819425 1.3685677215
H -0.2110007013 -1.2200328688 -1.3577850899
