19
0 1
C 1.9823581923 -0.9234658685 -0.5187763118
C 0.7036384125 -0.6083489773 0.1834443543
O 0.7890121399 -0.4050233858 1.5423557804
C 0.0340662021 1.6767971769 -0.3987870597
C -1.2700687864 1.7532021743 -0.0228580109
C -1.7621905019 -0.5246924698 0.4030814488
C -0.5484435078 -0.9821871752 -0.2769785684
H 2.6806340869 -0.0828400507 -0.4477054911
H 1.8029830155 -1.1115026189 -1.5767704412
H 2.4758115639 -1.8040887689 -0.0908162180
H 1.6836907644 -0.1495567087 1.7714811213
H 0.8260619674 1.9295880593 0.2943759507
H 0.3132341161 1.6257884390 -1.4446303189
H -1.5429053152 2.0637248126 0.9773341735
H -2.0611955636 1.7910759318 -0.7611995294
H -2.7192235302 -0.7260054437 -0.0592017908
H -1.7299073744 -0.3990172267 1.4753391459
H -0.6374861911 -1.1886846687 -1.3361815523
H -1.1336756903 -1.8520142314 0.3531343177
