16
0 1
C 1.8682479046 0.8618769200 -0.9184904729
O 0.5359609705 0.3635345295 -0.8261905178
C 0.4333027915 -0.8644681046 -0.0509751427
C -1.0569524133 -1.1252700777 0.2100084609
C -1.8480892480 -0.1725308831 1.1061759393
O -1.5299662060 1.3967861717 0.3353075534
H 2.5203722964 0.1259076172 -1.4161562114
H 1.8292659999 1.7773743752 -1.5202966739
H 2.2825297249 1.0913520007 0.0776736505
H 0.9726774237 -0.7335512431 0.9035514992
H 0.9270391764 -1.6691037123 -0.6283744834
H -1.5537187035 -1.2805197828 -0.7654148988
H -1.1326124013 -2.0962440524 0.7331099841
H -2.3035665454 1.4088910656 -0.2576849124
H -1.1967780427 0.0430587339 1.9808976951
H -0.7118067277 1.2175784421 -0.2328424693
