13
0 1
C 1.5393078388 0.0653521183 1.4604850183
C 1.5275488168 -0.2208931677 0.2370084095
C 0.5594668006 -0.1962635957 -0.7247861723
C -0.0783537176 1.0494762341 -0.5508098712
C -1.0722481792 0.7271521991 0.3857723141
O -1.4923799062 -0.5847706001 0.2397644765
C -0.5202480911 -1.2555374581 -0.5841590865
H 2.1086186856 0.0601628661 2.3699756097
H 0.4424523856 1.9952357925 -0.5480855186
H 0.0229059610 0.6433778680 1.3502770382
H -1.8343912026 1.3768193366 0.7966635256
H -0.9939621142 -1.5388937595 -1.5276421776
H -0.1575692775 -2.1470258336 -0.0706575659
