13
0 1
O 1.5149715016 -0.6923063334 -1.4315328981
C -0.0458375216 0.2918061097 0.2584596639
C -0.7628900939 -0.6535662054 -0.6100256965
O -2.0338727248 -0.0935976346 -0.2386203890
C -1.3873009240 0.8457132763 0.6235517170
C 1.2172475392 0.2981846495 0.8754574439
O 2.3072661717 0.0778146162 0.3619538190
H 2.4198246657 -0.8731541915 -1.7092180827
H -0.6692869606 -1.7185136978 -0.3854829773
H -0.4663192694 -0.5256251781 -1.6752498986
H -1.5674935500 1.8855803312 0.3299592410
H -1.6744164804 0.7130102203 1.6731699111
H 1.1750336466 0.4241200375 1.9701461465
