13
0 1
N -2.4176071119 1.4748467473 0.6918304746
C -1.9988439768 0.6539331155 1.4239544609
O -0.1559811290 -0.0665392738 1.3800150337
C 0.1554381820 -0.7160471601 0.1953407029
C 1.3347311156 -0.0026533864 -0.4817881762
C 1.6906649395 -0.6069857203 -1.7612970530
N 1.9430741163 -1.0963843734 -2.7679773072
H -2.0207467607 2.0196559863 -0.0572752947
H -1.4724157694 -0.1989297022 1.9634521869
H -0.6912539039 -0.7338987533 -0.5140811020
H 0.4313216833 -1.7637767601 0.3738144350
H 1.0834228579 1.0472199460 -0.6458799113
H 2.2011707571 -0.0281176655 0.1810395505
