15
0 1
C 2.1782254710 0.0474100384 -0.1233011919
C 0.7047595816 -0.0767355345 -0.3305679256
C -0.2051681872 -0.1013314215 0.8986219622
O -0.7791824796 1.2071512013 0.9676383081
C -1.3614832283 1.1381012538 -0.2681199674
C -1.9130945086 -0.1340982316 -0.5093528902
C -1.2670549702 -0.9800558935 0.3567216441
H 2.6101109217 -0.8610848958 0.3170026236
H 2.4096649717 0.8745503851 0.5536786875
H 2.6900278257 0.2131433374 -1.0725382471
H 0.3887085527 -0.6564030593 -1.1861225689
H 0.2724229003 -0.3639997925 1.8412546094
H -1.6796027930 2.0738653522 -0.7091957852
H -2.6321103712 -0.3681917003 -1.2798604599
H -1.3966156869 -2.0363310393 0.5285702014
