15
0 1
C 1.1977593291 -0.5100039328 -1.0791067474
C 0.5844785926 -0.0644622184 0.2304864876
C -0.2370548708 1.2575439380 0.0988104299
N -1.6091640123 0.7916354006 0.0881565165
C -1.5443789633 -0.2675658201 1.0011278402
C -0.4550703773 -1.2985095610 0.7057728268
N -0.0645385411 -2.4150242697 0.8036208326
H 0.4394598011 -0.6281921377 -1.8561947956
H 1.8972137891 0.2662629457 -1.4054454968
H 1.7289952503 -1.4523489617 -0.9704508159
H 1.3322193009 -0.0313916443 1.0216030539
H 0.0187748966 1.8397785857 -0.7920439410
H -0.0710950852 1.8854890525 0.9778815687
H -1.8716148288 0.4583435644 -0.8316619649
H -1.4083752807 0.0991120586 2.0229542055
