18
0 1
C -1.2963434784 -1.0195603430 0.5315598274
C -0.4232638401 0.0905079902 -0.0647533006
C -1.2813014512 1.1606115404 -0.7417430010
C 0.7887329581 0.5632918687 0.7987651877
C 1.6794673218 -0.3716910232 0.1654457806
C 0.7276207410 -0.5633554409 -1.0262578177
H -1.8976856250 -1.4991654417 -0.2557329922
H -0.6911016019 -1.7947509822 1.0191257482
H -1.9914454203 -0.6045017442 1.2754404981
H -1.8840904356 0.7159095176 -1.5491870424
H -0.6612562424 1.9518050770 -1.1866787164
H -1.9769416776 1.6237568097 -0.0262210877
H 0.9739153220 1.6364183495 0.7572036652
H 1.9144432836 0.5418222861 1.8618196425
H 1.9776011608 -1.2900584366 0.6673105647
H 2.6693319817 0.3194813891 1.0967543915
H 0.5275519823 -1.5808506123 -1.3973685506
H 0.8879410212 0.1142151959 -1.8747347974
