14
0 1
O -1.1153552290 -0.6013640379 1.4710162087
C -1.1652468512 -0.0840064875 0.1926407861
C 0.1844284414 1.6999042904 0.1950994250
O 1.1900109224 0.9733675703 0.7791668188
C 1.7183574586 -0.0800263264 0.0633027889
N 1.0957976574 -0.8717381784 -0.6773715411
C -0.3507794910 -0.8318806765 -0.8356215826
H -0.2153926236 -0.5381336945 1.8092046381
H -2.2109253995 -0.0043292252 -0.1083993418
H 0.2923418489 1.6131961566 -0.8996545711
H -0.9606804033 1.1490153380 0.3889040444
H 2.7858370649 -0.1822984672 0.2366207380
H -0.5794272218 -0.4600463769 -1.8374240912
H -0.6842711743 -1.8745908849 -0.8106783202
