19
0 1
C 2.3438543167 0.5218798889 -0.0941812734
O 1.4146662649 0.6589508289 -1.1439272903
C 0.0068799198 -0.7996736109 -1.1843920468
C -1.1473726060 -0.5071345342 -0.4542597331
C -1.4514713274 -1.3274739877 0.7814986491
C -0.9771881312 1.2562062202 0.2551909003
O -0.4577670341 2.0829007581 -0.5586813161
H 2.8224178368 -0.4584385708 -0.1644409971
H 3.1188881049 1.2878534767 -0.1811974483
H 1.8740084962 0.6115113801 0.8908369095
H 0.0314177913 -0.6505235605 -2.2537669406
H 0.7327276908 -1.5088288507 -0.8016603546
H -2.0023173338 -0.2805160296 -1.0856540834
H -2.0995646807 -0.7788507435 1.4707519954
H -0.5341287594 -1.5752184093 1.3208546474
H -1.9558974257 -2.2641839440 0.5352038150
H -2.0451653046 1.3699023296 0.4936466710
H -0.3989623081 0.9380551884 1.1403380678
H 0.7296794897 1.4273181704 -0.9258031718
