16
0 1
C 2.1406373012 -0.0333472853 -0.0030249489
C 0.7296537022 0.4728797929 0.2639832118
C -0.3105453578 -0.1117586125 -0.6863739976
O -0.3754153217 -1.5377937831 -0.5861949094
C -1.6893574982 0.4218522873 -0.4603919743
C -2.1195342467 0.8046895615 0.7889401710
N -2.5170288682 0.9829827458 1.9077556118
H 2.4384573120 0.1496821965 -1.0393310264
H 2.8630029142 0.4705482476 0.6399407400
H 2.2320698206 -1.1040184919 0.1950909540
H 0.7022786926 1.5616610098 0.1662325126
H 0.4418165384 0.2383158296 1.2933003704
H -0.0317721716 0.1541279794 -1.7159281572
H 0.4556879652 -1.9072049499 -0.8946090564
H -2.3647853344 -0.3080078887 1.0636757540
H -2.4453074479 0.3218453610 -1.2264222555
