10
0 1
C -1.1982875671 -0.1039478822 0.4783841862
C 0.1647729194 0.2272168464 -0.0579175091
O 0.3762231903 1.5861968870 -0.0462465975
C 1.0643878529 -0.6777355936 -0.4910085723
H -1.9762897569 0.3945793124 -0.1179635397
H -1.3738615778 -1.1849635676 0.4582638912
H -1.3000761001 0.2537405000 1.5135215315
H 2.0456433792 -0.3877583712 -0.8704558185
H 1.2739243912 1.7548438792 -0.3922953746
H 0.8326072690 -1.7391840105 -0.4686821970
