14
0 1
C 2.5185155187 -0.0697943012 -0.0500936056
C 1.0831753619 0.3891492652 -0.0166944893
C 0.0213781406 -0.5880612012 -0.1133178506
C -1.1745966203 0.0055998655 0.0813119693
N -2.5543526023 -0.3698050190 0.0734992260
C -1.6090949018 1.2500227540 0.4111430179
O 0.8049740103 1.5784162345 0.1321439588
H 3.1708139534 0.7708442006 -0.2770677645
H 2.6639268634 -0.8659773657 -0.7819182584
H 2.7899352037 -0.4669655139 0.9312358163
H 0.1729912984 -1.6485903252 -0.2470279668
H -2.9227327950 -0.7903424669 0.9090509103
H -2.9041200193 -0.7561197435 -0.7894996510
H -1.8763354120 1.9846646168 -0.3429463124
