10
0 1
N 2.1869337205 0.2371737582 -0.0526387114
C 0.9124359573 0.1893446635 0.0381543727
N 0.2005532176 -1.0544010404 0.1688797854
N -1.1622495487 -0.7357037685 -0.0843131869
C -1.1995235712 0.6478035994 -0.0020410240
N -0.0477370624 1.2380472830 0.0256593660
H 2.4603033191 1.2212255753 -0.1389344070
H 0.5326770484 -1.7837277024 -0.4618699054
H -1.8110801261 -1.2530451320 0.5144728554
H -2.1666739546 1.1501047638 0.0048778553
