12
0 1
N 1.4783297963 -0.6572273459 2.2924057090
C 0.4704439307 -0.2489790300 1.9247397447
C 0.4414354226 0.1947627775 -1.3767318669
C -0.5396735939 -0.6918891653 -0.6487698978
N -1.3127459889 0.0270201610 0.3335636548
C -0.8231094090 0.2377494333 1.4738667530
N 0.7644103327 1.3332682880 -0.9493087014
H 0.8565347988 -0.2551021038 -2.2856372272
H -1.2256924616 -1.1231178523 -1.3806670050
H 0.0353485913 -1.5215821997 -0.2127812204
H -1.3909600039 0.8089104318 2.2034733210
H 1.4535035849 1.7736156054 -1.5530172639
