12
0 1
N 2.1788315434 -0.8184980969 1.5065247996
C 1.4833103217 -0.4999815432 0.6510272800
C 0.5861990577 -0.0444840940 -0.4354235629
C -0.6739808793 -0.9355149035 -0.4922770728
N -1.6272528057 -0.3584443973 0.4559439207
C -1.5202718492 0.7747016074 0.8028913183
N 0.1862615665 1.3266512268 -0.3241227172
H 1.1084520987 -0.2217721921 -1.3848923853
H -1.1361449906 -0.8795354438 -1.4786964271
H -0.4741779766 -1.9767731032 -0.2478805041
H -0.9500556643 1.7292764897 0.7979793585
H 0.9207245777 1.8603234499 0.1342559923
