13
0 1
C 0.5361038669 -1.0247601716 0.2980593738
C -0.7093652118 -1.2253315623 -0.4879712635
O -1.4924580629 -0.1279839600 -0.6918000456
C -1.2776758006 1.0633119225 -0.1658652950
N -0.0496066073 1.3887959356 0.3858472755
C 1.0349564158 0.4510502271 0.1081781319
H 0.3804674856 -1.1601185562 1.3839439276
H 1.3071701655 -1.7508115675 -0.0037228008
H -0.7917626986 -1.9087630156 -1.3278376550
H -0.0737635799 1.7386029330 1.3431417451
H -2.0407628019 1.8020748419 -0.3817029667
H 1.8749441881 0.6866974252 0.7705811640
H 1.3680456410 0.5883655481 -0.9283835915
