11
0 1
O -2.1771474174 -1.5866841571 0.0234111071
C -1.9176344766 -0.4041547353 -0.0037066938
C -0.5593037536 0.1062223925 0.0399101197
C -0.0670646096 1.3947063411 0.0616599669
N 1.3623666196 1.2208177369 0.1081061453
C 1.6340740966 -0.0851113071 0.0593187461
N 0.5047915910 -0.7717778056 0.0953053973
H -2.7026105472 0.3680753390 -0.0657659215
H 0.9081783028 2.0579623861 -0.5812146724
H 2.6156748583 -0.5334798593 0.0582525844
H 0.4024023360 -1.7697973311 0.2045902209
