15
0 1
C -1.6300575702 -0.7677656430 -0.0170973378
C -0.7196416512 0.2925308346 -0.5128969326
O -1.2284982034 1.3414218775 -1.0584832499
C 0.8656970511 0.2737753993 1.1051802256
C 1.5601368038 -0.6160889189 0.1416458901
C 0.7115166458 0.3405327357 -0.6181650633
O 1.1308774006 1.3711594606 -1.2616610592
H -2.3395292334 -0.3550997227 0.7011880738
H -2.2034134080 -1.1434542587 -0.8668669711
H -1.0921567195 -1.5972932312 0.4358018893
H -0.3020548906 1.7734502886 -1.3802499173
H 1.3495302997 1.1957317187 1.3946243969
H 0.1408824606 -0.1360666607 1.7942349094
H 2.6149049296 -0.4454741942 -0.0307538457
H 1.2789800851 -1.6630586857 0.1502949917
