18
0 1
C -2.0634906320 0.3855591010 -0.9838923339
C -1.1608483705 0.8596774806 0.1097141030
C -1.0488835338 0.2106914978 1.3474379928
N 0.6807833300 -1.1700499459 0.9661141245
C 1.3024277610 -0.5282936673 0.0038678702
O 0.6682675458 0.1041298628 -0.8877485506
C 2.8184955411 -0.4813407939 -0.0827357753
H -2.8582645651 1.1063285564 -1.1842911215
H -1.4561030978 0.2731512214 -1.8786971004
H -2.5012634571 -0.5816662418 -0.7384207437
H -0.6483011238 1.8043963263 -0.0115507411
H -1.9732304873 1.1475060335 1.1738923465
H -0.4624312734 0.6452542517 2.1417852056
H -1.6264354199 -0.6782802047 1.5428461629
H 1.3361856735 -1.5411016876 1.6436945994
H 3.1276299719 -0.7964018307 -1.0800171300
H 3.3059843863 -1.1145556928 0.6595448492
H 3.1534337512 0.5494797331 0.0495152423
