19
0 1
C 2.2184221882 0.0143757460 -0.2643217447
C 1.1457757010 -0.4119083536 0.5937721573
O 1.3985087151 -0.2738273102 1.9708215064
C -0.1210941140 0.6495999399 0.2303203479
C 0.0263069956 0.9133917488 -1.2420919719
C -1.4662822129 0.2857636016 0.4260548682
C -2.1150292912 -0.9241527857 -0.1564112868
H 1.3155806199 0.7641925018 -1.1817083688
H 2.6444726642 -0.6850566871 -0.9726645642
H 2.9035197976 0.7543500794 0.1371585592
H 0.7818922977 -1.4162999941 0.3516168468
H 0.5490699410 -0.2781852234 2.4243070456
H 0.1452797948 1.5434671313 0.7973706495
H -0.2932884654 0.1069394076 -1.9021990468
H -0.3265487558 1.8811059381 -1.5963239870
H -2.0751497179 0.8542341872 1.1254773707
H -1.4382339133 -1.4990910135 -0.7891095687
H -2.9963994787 -0.6718485764 -0.7526536667
H -2.4675337656 -1.5814463374 0.6471178541
