11
0 1
N 2.7283103091 -0.6376925332 1.4535985235
C 1.9687388912 -0.7752938086 0.5732312677
C 0.9816166945 -0.8779315877 -0.5257445125
C 0.0154361234 0.2659143760 -0.5520324010
C -2.0300328874 0.9503329438 0.4827218012
O -1.0973325613 0.0925804159 0.1406934419
H 0.4326186028 -1.8250887187 -0.4154423464
H 1.5348470726 -0.9344298934 -1.4762931559
H 0.3173729156 1.2847290810 -0.7930225978
H -2.8937792739 0.5095101789 0.9628215437
H -1.9418698865 1.9942785461 0.1895694355
