14
0 1
C -1.7189145200 0.1069470274 0.2771138049
C -0.4039530175 0.1717413836 -0.4877563228
C 0.6131688251 0.9938256325 0.1140118249
C 1.6997110593 1.2420518567 0.6306219250
N 1.5146512171 -1.3149034118 -0.0997918492
C 0.3043073815 -1.2977165177 -0.5635537154
O -0.4651433664 -2.1233610628 -1.0582341505
H -2.2746929474 1.0448123164 0.2297029775
H -1.5453884315 -0.1546047150 1.3219872991
H -2.3099606692 -0.6853977674 -0.1785841435
H -0.5608146760 0.4806357800 -1.5231785111
H 0.6929892374 2.1827279948 0.4504668322
H 2.6183753728 1.5608648728 1.0773684175
H 1.8939695350 -2.2517233895 -0.1806173882
