17
0 1
C 1.7072521163 -0.4357437076 -0.2632759315
C 0.6268550600 0.1881326223 0.5818665975
C 0.0564585791 1.6061053916 -0.6315473038
C -1.0233049123 0.8306302586 -0.1651093110
O -1.5131932714 -0.1705377403 -0.9485725353
C -1.2994702005 -1.3077963741 -0.0310680520
C -0.4690884437 -0.6714709839 1.0263485849
H 2.1557206837 -1.2346506465 0.3350184656
H 2.4717722331 0.2820021027 -0.5606056794
H 1.2887051828 -0.8941530080 -1.1605007628
H 0.9880590098 0.8245086518 1.3816061237
H 0.1775397106 2.6156855416 -0.2644755929
H 0.5078761521 1.3449041051 -1.5754732656
H -1.6833985188 1.2796944002 0.5751933583
H -0.8407900170 -2.0909949723 -0.6440083010
H -2.2523389739 -1.6796593082 0.3528317772
H -0.9110053899 -0.4838993331 1.9937118279
