12
0 1
O -0.1886431331 -1.6177183003 -1.3064565496
C -0.3050818384 -0.5897560112 -0.4850821052
C -1.2576843722 -0.0822731048 0.5518600368
C -0.5326655246 0.9019981959 -0.3827860695
O 0.7187007980 1.3464776408 0.1101802104
C 1.3653542392 0.0869565868 0.2832392875
H 0.8634134993 -1.0606873524 -0.7190753774
H -2.2943905709 -0.2852669233 0.2657948987
H -1.0692175109 -0.0900070500 1.6269281966
H -1.0556063666 1.6003392422 -1.0359624419
H 1.4216799421 -0.2644885281 1.3203023563
H 2.3466218381 0.0645026043 -0.2183844427
