12
0 1
O -1.8026067583 0.9455044970 -1.1237831156
C -1.8486088215 -0.1636356496 -0.2784601981
C -0.4641590482 -0.4808914135 0.2315452769
N 0.4720264854 0.5453431384 0.4442935687
N 1.7161807504 0.3262774566 -0.0841736467
C 2.4311426038 -0.7372284822 -0.0166136347
N 0.0996122508 -1.4327744457 0.7633170473
H -1.2644505989 1.6192590721 -0.6933784818
H -2.2321558788 -1.0140702095 -0.8411944171
H -2.4984651244 -0.0033758138 0.5903597371
H 2.0392287113 1.2089469922 -0.4750209917
H 3.3452894282 -0.5856741418 -0.6114701442
