14
0 1
O -1.2279848829 -0.8985310642 1.3403835204
C -1.1201839404 -0.3600505900 0.1425678671
C -0.0799222146 1.2760320068 0.4138898812
O 1.2710434665 0.9628433436 0.6282771579
C 1.7602117482 -0.1706633553 0.0638385012
N 1.1866188709 -1.0554299527 -0.6119475829
C -0.2310910167 -1.0063502718 -0.8990887708
H -0.7452439961 0.3475900223 1.1752988481
H -2.0168744352 0.1137234466 -0.2931787520
H -0.2783151438 1.6773269591 -0.5793720889
H -0.3622336227 2.0243274065 1.1619443279
H 2.8222383456 -0.2441471327 0.2787373524
H -0.3849368145 -0.5486161016 -1.8807358040
H -0.5995913641 -2.0353417165 -0.9631774574
