19
0 1
C 2.4999555255 -0.8349695394 0.0293111048
O 1.4905725718 -0.0949673272 -0.6344331469
C 0.7937363813 0.7328892417 0.1582874406
C -0.2397512209 1.5257012783 -0.6104254405
C -1.4585059741 1.2441443461 0.2653238771
C -1.0602544105 -0.1468125195 0.7341061996
C -1.2829017667 -1.2949770336 -0.2073102687
H 2.0466877125 -1.5686069425 0.7041825283
H 3.1470348187 -0.1700382680 0.6039226515
H 3.0713741103 -1.3576635614 -0.7359599455
H 0.2911128956 0.2163199683 1.1145165892
H 0.0385967577 2.5727173346 -0.7464754278
H -0.3842464919 1.0895048392 -1.6049526973
H -2.4232332255 1.3019483586 -0.2450922503
H -1.4928577110 1.9289865139 1.1147254426
H -1.3252686096 -0.3931847907 1.7648899898
H -2.3515633725 -1.4455844539 -0.3957520080
H -0.8000480733 -1.1321730979 -1.1744517299
H -0.8900669173 -2.2266053466 0.2048110915
