12
0 1
O -1.0746825067 0.4935760947 1.1818384977
C -0.7522094603 -0.6415363040 -0.4996292703
C 0.1720627581 0.0761279939 -1.4016374911
C 0.5785649190 -0.8272994314 -0.2559970888
C 0.4950360255 0.3373097301 1.3037905140
O 0.8940143324 -0.1827923203 2.3222776464
H -1.2550393728 1.4276243764 0.9448374399
H -1.7286748550 -1.1117563463 -0.5232699847
H 0.2020550942 -0.2494261104 -2.4501657607
H 0.3408980996 1.1590199890 -1.2899886740
H 1.2343345792 -1.6837805721 -0.1507642269
H 0.9433363867 1.2144869004 0.7898343986
