17
0 1
C -2.1092752743 -0.3986717068 0.6547156657
C -1.4543986384 0.3908496037 -0.4406075265
O -1.2553759767 1.6964035859 -0.2616632058
C 0.3502043927 -0.4021860610 -0.4713334091
C 1.6633894396 0.3797072093 -0.7005339390
C 2.0112836871 -0.1214560681 0.7046337076
O 0.7584935264 -0.8250718686 0.8140423322
H -3.1408828026 -0.0410717345 0.7049213159
H -2.1148615659 -1.4711026375 0.4542915812
H -1.6253686125 -0.2008343492 1.6089590823
H -1.7417915109 0.0648402968 -1.4538888238
H -0.2534591013 0.8253187400 -0.3926753325
H 0.1178188683 -1.2112576371 -1.1627368502
H 2.2783976935 0.0034382505 -1.5140921617
H 1.5540947866 1.4618705280 -0.7972417519
H 2.1068470333 0.6479872469 1.4727812831
H 2.8566910551 -0.8097723981 0.7629370326
