16
0 1
C 2.3582373108 0.3686044629 -1.0942417344
C 0.9088696950 0.1301100145 -0.7739755763
C 0.4442340306 -0.3059379512 0.4095912000
O -1.2887663735 0.1929061672 2.0136026220
C -1.0006104501 -0.5256581984 0.7953244398
C -2.0249627742 -0.1957352211 -0.2937487010
H 3.0029868233 0.1497946053 -0.2325492291
H 2.5297251106 1.4144696698 -1.3961143140
H 2.6854690417 -0.2598798648 -1.9380897904
H -1.0823518359 1.1286808593 1.8246214783
H 0.2042498951 0.3290836143 -1.5866541668
H 1.1534996899 -0.5045578514 1.2195662228
H -1.1274816284 -1.5798364501 1.0883691832
H -1.9352487564 0.8540397616 -0.6108653543
H -3.0367205898 -0.3508608840 0.1006652458
H -1.8926651888 -0.8336637340 -1.1787915258
