19
0 1
C 2.4386098405 -0.4946653834 -0.3520371592
O 1.0742571639 -0.8194452395 -0.2665533173
C 0.4011674550 -0.0514294788 0.6865225834
C 0.1002912921 1.4066704214 0.2961798167
C -1.1153646581 1.0079583057 -0.3147352954
C -1.1775289933 -0.2897317542 0.4816015268
C -1.6326428088 -1.5878537828 -0.1474865684
H 2.9416476350 -0.6250688404 0.6150056259
H 2.5765007523 0.5423542064 -0.6816347681
H 2.8882061002 -1.1681281921 -1.0802171511
H 0.8088564687 -0.2486729770 1.6886533170
H 0.1223864691 2.1355895923 1.0952932087
H -0.0920317652 2.5859353906 -0.5794313649
H -1.2705710664 0.9845702524 -1.3843547268
H -1.1664205649 2.5536851772 -0.5510496955
H -1.6450203964 -0.1367534651 1.4563507881
H -2.7159862907 -1.5827773979 -0.2871179419
H -1.1564973121 -1.7437591345 -1.1153122757
H -1.3819623209 -2.4398817004 0.4879773977
