12
0 1
O -2.0477390158 0.6631520977 -0.0270221355
C -1.6020851977 -0.6578474615 0.1623680034
C -0.1695069369 -0.9573452379 0.3359951485
N 0.6441970315 1.3972714508 -0.5149168974
O 2.0890655750 1.2422797214 -0.7044940306
C 2.1573835712 0.1069506996 -0.1448210450
C 0.6997781551 0.1078784442 0.0903674103
H -1.4726214160 1.1196660432 -0.6522307984
H -2.1787196037 -1.0740390769 0.9914663563
H -1.8429977236 -1.3107297329 -0.7009018735
H 3.0600712704 -0.4830137911 -0.0468731991
H 0.5726912907 -0.1140531566 1.2844550610
