15
0 1
C -1.5294131106 -0.1258351940 -0.2610652454
C -0.5770536466 -0.5312443033 0.8711739394
O 0.2666807942 -1.4841988348 0.2158055474
C 0.7357185122 -0.7094454454 -0.8539034278
C 1.6966271345 0.8369259368 0.5633142542
C 0.2087009104 0.8142700001 0.6094444853
C -0.2435658219 0.4849327291 -0.8348311951
H -2.0214411306 -0.9394450964 -0.7942903813
H -2.2416801710 0.6444397152 0.0323120989
H -0.8887579842 -0.9048314065 1.8421294742
H 0.8932806729 -1.3097790858 -1.7500702743
H 2.1131264147 0.1556919313 1.3288843041
H 1.7744355931 -0.2197487554 -0.6063135514
H -0.2273271787 1.6927781467 1.0852690649
H -0.1933489886 1.2022586624 -1.6481600932
