14
0 1
C 2.3063496952 0.2701376429 -0.7963376737
N 1.6764240627 -0.9341191469 -0.3363085447
C 0.4873465196 -1.1271109723 -0.0944435804
C -0.6454418489 0.8184777974 -0.2966688768
O -1.8368512445 0.2808334546 -0.6235278492
C -2.5427981064 -0.4307237725 0.1419304404
O -0.4177485774 -1.8197361890 0.2448046553
H 2.0433545482 0.4894915723 -1.8350307006
H 2.0425060124 1.1354925578 -0.1811172902
H 3.3868465314 0.1406604263 -0.7447905259
H -0.3328997355 1.5268031317 -1.0499806277
H -0.5413785877 1.0950427244 0.7490303833
H -3.3876626810 -0.9222258254 -0.3171421313
H -2.3233545879 -0.4900374013 1.2002733216
