14
0 1
C -1.3072963506 -0.9308760145 0.1232263662
C -0.4409442908 -0.0222631182 -0.7232326095
C 0.0910746794 1.1884945465 0.0456406007
N 0.9283582531 0.8335377166 1.1588441364
C 1.8334486070 0.0659940785 1.3383413907
O 2.7199580753 -0.6234580679 1.6487031741
O 0.6250573358 -0.8103037741 -1.2221908290
H -0.7343163572 -1.3410546714 0.9554849155
H -1.6732713027 -1.7609369706 -0.4802545760
H -2.1626906018 -0.3857938885 0.5250806020
H -1.0396336541 0.3739778466 -1.5555481540
H -0.7475296591 1.7768542523 0.4217648622
H 0.6569491085 1.8348094708 -0.6340699479
H 1.1108091570 -0.3104654063 -1.8813629315
