8
0 1
O -3.3831454525 -0.7214413745 1.4227106070
C -2.4298960577 -0.1607067830 1.0448608736
C -1.3656542611 0.4687382080 0.6239770256
C -0.3158576145 1.0814462960 0.2030827548
C 1.9662205649 -0.1435542261 -1.0206344119
O 1.7709236158 -1.3421142881 -1.0564571470
H 1.6564383585 0.5409502133 -1.8442532067
H 2.4845078466 0.3560059544 -0.1692454954
