13
0 1
N -2.1030729093 0.8558380884 -0.2130451117
C -0.9774085055 0.1538470223 -0.4417442874
C -0.5299989660 -1.1059429082 -0.7269986268
N 0.8035119936 -1.1844945984 -0.1926534794
C 1.1708296260 -0.0464240669 0.3397125685
O 2.4168389576 0.1010511790 0.7773059858
C 0.1303896929 0.9240928567 0.2052987554
H -1.0651584421 1.2015274424 0.7626023241
H -2.9743274042 0.3561967582 -0.3270208850
H -1.0624817462 -2.0167704511 -0.9399335083
H 1.3955732223 -1.9971775629 -0.2224452982
H 2.4917919908 0.9470278955 1.2265826573
H 0.4225314901 1.8811193451 -0.2193160943
