13
0 1
C -1.8935574904 -0.2976464770 -0.2024706143
O -0.8626265206 -0.3513432746 0.7751532628
C 0.3531053976 0.0284415003 0.3401220582
C 0.9027800733 1.3229084614 -0.1580597060
N 2.0866576380 0.9620720219 -0.4869549893
C 1.9512788607 -0.4602451744 -0.3090427066
N 1.5072410253 -0.5360268130 1.0632372768
H -1.9700357556 0.7013561980 -0.6390171470
H -2.8198908659 -0.5416324086 0.3115489864
H -1.7070979126 -1.0289217363 -0.9939436316
H 0.4715767409 2.3158115827 -0.2265262029
H 0.6848018000 -0.6433053878 -0.7816695141
H 1.2711730092 -1.5025654927 1.2872929274
