15
0 1
C 1.6183994910 -0.5310714612 0.0283034962
C 0.4245276004 0.1938525070 0.6094824841
C -0.2024194341 1.3395053251 -0.1727022046
O -0.4942750841 0.8320456807 -1.4782057749
C -1.5948749906 0.7648173085 -0.0948987469
C -0.9906321290 -0.4792067440 0.5747313136
O -1.1627891165 -1.7252967941 -0.0177052197
H 2.5084676082 0.1010763104 0.0534929657
H 1.4444905133 -0.8228149969 -1.0076979928
H 1.8286963025 -1.4357162715 0.6009384619
H 0.6348510615 0.5180491350 1.6308180177
H 0.0947982084 2.3835278764 -0.1478313283
H -1.5835960167 0.9915561822 -1.4883312192
H -1.4162813646 -0.5416401883 1.5803098621
H -0.9443336498 -1.6458758692 -0.9497881150
