17
0 1
C 1.8611199110 -0.6549350013 0.0814706813
C 0.6319996597 0.1314982676 0.4942753910
C 0.3628124279 1.4312808678 -0.3354576442
C -1.1644816911 1.6480549411 -0.4823888356
C -1.4916014041 0.5259748074 0.0372907281
C -0.7115381116 -0.6716515044 0.4213717585
O -0.7705511245 -1.7288563190 -0.5064251259
H 1.7954350019 -0.9864721569 -0.9567243258
H 2.7514559163 -0.0290246963 0.1732588937
H 2.0013095975 -1.5407379358 0.7028482268
H 0.7333875267 0.4305075567 1.5408381322
H 0.7716939059 1.3558838938 -1.3474672598
H 0.8318529471 2.3019496679 0.1242920778
H -3.0062869863 -0.0180284944 -0.3302105486
H -3.0393857647 0.3154408582 0.3802216664
H -0.9726241346 -1.1181421850 1.3797910590
H -0.6380226772 -1.3710485674 -1.3885808746
