11
0 1
O 2.2385405967 -1.1561162132 0.7462676770
C 1.1925417822 -1.0149236867 0.2384769848
C 1.1799723120 0.9209096004 -0.3597879966
C 0.1671998367 1.4921068349 0.0352731144
N -1.3467486840 0.0597045124 0.5676558597
C -1.0891789075 -0.9705239854 -0.1597414658
N 0.1224081274 -1.5432092437 -0.1826095336
H 2.1606667000 0.9835417924 -0.7826231978
H -0.5230839845 2.2508869936 0.3240458163
H -2.2872213920 0.4030234336 0.3956997231
H -1.8210673871 -1.4325700382 -0.8227019815
