12
0 1
O -2.2303698322 0.9528740165 0.3726313579
C -1.7832771770 -0.1497452767 -0.2866127461
C -0.0932175536 -0.1865118748 -0.2418827658
N -0.1113744726 0.2248128778 -1.3932025712
N 2.2422708154 0.1135032400 -0.7264661820
C 1.9223426224 -0.3326141383 0.4207537947
N 0.6004148933 -0.5356220121 0.7908858710
H -2.3186336273 1.6867437742 -0.2409652205
H -2.2091176262 -0.3175517129 -1.2719783010
H -1.8960297273 -1.0401191634 0.3347145713
H 3.2388475206 0.2035244928 -0.8766880522
H 2.6384371646 -0.5953512230 1.1992152439
