12
0 1
N 2.7140344820 -1.4132213429 0.4849349848
C 1.7795066934 -0.8584219315 0.1201737179
C 0.6134524999 -0.1340449481 -0.3677752897
C -0.6888917496 -0.9119859488 -0.4811426420
N -1.6693755495 0.0558248682 -0.5565910840
C -1.2301389620 1.0979992022 0.0643803201
N 0.0059130790 0.7124500018 0.6877534806
H 0.8685237845 0.4805853150 -1.2447075952
H -0.7743833267 -1.7947976350 -1.0991536087
H -0.3831315876 -0.3936037346 1.1008913528
H -1.7959609774 1.9464718653 0.4138007673
H 0.5710106142 1.3928612886 1.1842355961
