14
0 1
C 2.2463874090 -0.8263417478 0.1240383938
C 1.1553258741 0.3354320076 0.5265677428
C 0.2840910576 -0.2716131048 -0.3127250724
C -2.0817464354 0.6377752020 -0.2152561512
N -2.7332613439 -0.5401683872 -0.2480922706
C -1.5304616415 1.7068730732 -0.2476901527
O 1.3883390007 1.1330658835 1.3853027502
H 3.1210870429 -0.2308712861 -0.1342342568
H 2.0327309109 -1.5344424274 -0.6748849197
H 2.3879635649 -1.3760399536 1.0505355209
H 0.3801533002 -0.0737146108 -1.3768523947
H -2.1443949748 -1.3218369459 0.0006043797
H -3.6244912794 -0.5432997320 0.2217424376
H -1.0316894853 2.6446990294 -0.1936810071
