14
0 1
O 0.8617923082 2.9898579100 1.3051618768
C 1.0626450371 1.9975304516 0.6939845164
C -1.5845903100 -0.2708971667 -0.4660235878
C -0.2825860167 -1.0788373753 -0.4488748040
C 0.7892291525 -0.4845607543 0.4881642259
C 1.2906677206 0.8770373604 0.0318232155
H -2.0253240077 -0.2188775970 0.5410666276
H -2.3265038144 -0.7267688243 -1.1363833697
H -0.4890043897 -2.1120493612 -0.1258737954
H 0.1295382223 -1.1454830829 -1.4685410111
H 1.6475629427 -1.1724783157 0.5487809882
H 0.3786089119 -0.4053966348 1.5057621735
H 1.8300458003 0.9628950727 -0.9116447119
H -1.4034315572 0.7579873175 -0.8057753440
