10
0 1
O 2.2656826379 -1.3365034728 -0.0923170670
C 1.2331190191 -0.7804537574 0.1551846477
N 1.1953071796 0.5685499426 0.5500817817
N 0.0614299561 1.2649415056 0.2302062515
C -1.0190512475 0.6991773691 -0.2156506510
C -1.0626272367 -0.7213009291 -0.0969423369
N -0.0116384648 -1.4256410407 0.1438145185
H 1.1164872890 1.7411223789 0.0080284256
H -1.8425984941 1.3270559386 -0.5220855327
H -2.0207006385 -1.2351789349 -0.1523210374
