13
0 1
N 1.8496735223 0.7475546169 0.1572637142
C 0.7671878182 0.1817015202 -0.4576912214
C -0.3573930547 -0.9615633324 0.1605808593
O -0.1548430250 -2.2185695796 -0.2360696137
C -1.1200649212 -0.3668054421 1.0747311472
C -1.3354025677 0.3592808821 -0.2331875194
N -0.2625977226 1.0287930963 -0.7915583739
H 2.6513125787 0.1630289721 0.3048767074
H 1.7451705834 1.4947868334 0.8272857372
H 0.4935915716 -2.1545091464 -0.9545327818
H -1.7976620695 -0.6572542388 1.8610327468
H -2.2954805563 0.3569101851 -0.7403508249
H -0.1842641570 2.0170366333 -0.9716605769
