19
0 1
C 2.3363762406 0.3681517727 -0.7697478706
C 1.0498043338 -0.4486295245 -0.7482798401
C 0.2732383243 -0.2590626529 0.5422260052
C -0.4213368111 1.0886659203 0.8609108924
C -1.6879088309 0.3470751280 1.3703231047
C -2.1194073699 -0.4779243070 -0.3140376847
C -1.1032214706 -0.8968343946 0.7496338187
H 2.8753190775 0.2436140428 -1.7103499412
H 3.0057419634 0.0698801401 0.0406809497
H 2.1261533739 1.4335226431 -0.6464923366
H 0.4310173320 -0.1651427166 -1.6053562800
H 1.2805840179 -1.5115625700 -0.8758372992
H 0.9167250561 -0.5357783802 1.3820428743
H -0.5700352442 1.7648876247 0.0167744778
H 0.0162343964 1.6712981902 1.6730718792
H -2.6676676555 0.4362510209 0.1292144447
H -2.9216739825 -1.2027023900 -0.4033261446
H -1.6945361120 -0.1620104576 -1.2620184995
H -1.2503936396 -1.9013700894 1.1369134497
