11
0 1
C -0.8804356694 0.2452045038 -0.8034027718
N -0.8939012589 -0.9279308937 -0.0171984795
C 0.2454512046 -0.8953664471 0.7987316207
O 0.6315438984 -1.6989275579 1.6178419980
C 0.8228735733 0.4394760670 0.2898323355
C 2.0982069915 0.7615785137 -0.0354106523
H -0.4902297443 0.1677722202 -1.8202576439
H 0.1670440339 1.2879336226 0.5904243984
H -1.7295457716 0.9303879627 -0.6924675422
H -1.7377156692 -1.4302574487 0.2519361810
H 2.2018994118 1.5621454574 -0.7862664439
