15
0 1
C 1.8706071066 0.4184170406 0.1203463382
C 0.5845503429 -0.3907393176 -0.9759444323
O -0.1728940205 0.7465096048 -1.3617718679
C -0.9650345051 0.8033356375 -0.1897274896
C -1.7521191028 -0.5146881480 -0.2333991421
C -0.3732878971 -1.1308561883 -0.0100942144
C 0.0705275723 0.0696971500 0.7170488435
H 1.8500619721 1.2981601545 0.7726319836
H 2.4187997256 -0.3883718664 0.6025594348
H 2.4112655201 0.7303252651 -0.7671856090
H -1.4162670384 1.7768581284 -0.0152729745
H -2.4036146968 -0.6449863745 0.6309327586
H -2.2819458355 -0.7260687337 -1.1639154568
H -0.1451300686 -2.1593829945 0.2366629206
H 0.3067629251 0.1521296422 1.7701389072
