13
0 1
N -2.4611377922 0.3471544291 -0.5532430182
C -1.2115933073 0.2119391984 -0.5737154968
O -0.7215107796 -0.9991736171 -0.1723692940
C 0.6660234324 -1.1983923432 -0.3252760217
C 1.4464741746 -0.5418384153 0.8082258605
C 1.2919934058 0.9352445051 0.6698204951
N 0.4772157227 1.5698261431 0.0956868785
H -2.7471920199 1.2736943810 -0.8478825260
H -0.2535431921 1.9774869656 -0.4658278629
H 1.0066726942 -0.8005803295 -1.2874675198
H 0.8292811436 -2.2764057293 -0.3294828992
H 1.0320929300 -0.8231643010 1.7795026368
H 2.5021805881 -0.8129888868 0.8053397676
