13
0 1
N -2.1679635911 0.5591347348 -0.0194995751
C -0.7656750879 0.3938021698 -0.3413189860
C -0.3540612976 -1.0138277021 -0.6039791369
N 0.8700212357 -1.1088834330 -0.1998288828
C 1.2943303060 0.1101779321 0.4108958030
O 2.5746339982 0.0325148659 0.8727593736
C 0.3478568615 1.0565367465 0.4370638076
H -2.3003549225 0.3310154486 0.9585351600
H -2.3922688980 1.5433993462 -0.0950795160
H -0.8808671671 -1.8205860705 -1.0946820450
H 1.4601537994 -1.9220384795 -0.3202997533
H 2.7664617978 0.8984373220 1.2432554111
H -0.6005120344 0.8060231195 -1.3613106604
