8
0 1
O -1.4293122162 -0.4483182747 1.3763269792
C -0.9815598582 0.5100712600 0.7821203946
C 0.0413315771 0.4014840329 -0.3614685133
O 0.1339933829 1.3067394124 -1.1778530643
C 0.9482410802 -0.8339304627 -0.4897626051
O 1.2483064374 -1.5456691978 0.4459070502
H -1.3290672751 1.5583901710 0.9419770358
H 1.3680668718 -0.9487669410 -1.5172472772
