14
0 1
O -2.1168495515 0.1798939633 -0.7248138013
C -1.5294072361 -0.7013330977 0.2071333094
C -0.0410161966 -0.4766984361 0.3688990193
C 0.7694388422 0.0203859841 -0.8037873905
C 1.6593510476 0.7162791525 0.1945021711
O 0.3350709910 0.9674246274 0.9777775816
H -1.3724459771 0.4322143729 -1.3245624102
H -2.0438040904 -0.5880751875 1.1734639552
H -1.6310545212 -1.7652282948 -0.0978684720
H 0.4143039875 -1.1519814530 1.1161936719
H 1.1365853185 -0.6433036843 -1.5941602626
H -0.0278273334 1.2768283735 -0.0881337780
H 2.1581299254 1.6621363263 -0.0480188044
H 2.2601937941 0.1145553532 0.9000022107
