13
0 1
C -1.1332076617 -0.2972051867 -0.0772882781
C -1.4076247755 1.1436313780 0.3277336553
C 0.0299903230 0.7983222587 0.3347083521
N 1.1308826512 1.1169892886 -0.3634846074
C 1.7678666537 -0.0327850440 -0.4546977091
C 1.0000126153 -1.1024060860 0.0979186228
N 0.0173939749 -0.4821405567 0.9486429639
H 0.0589637734 -1.0017541917 -0.8657876009
H -1.8455944564 -1.1051993357 -0.1728385165
H -1.7246350387 1.8196755141 -0.4588865909
H -1.8814904983 1.3251068183 1.2934007384
H 2.6593776745 -0.1332973027 -1.0612207484
H 1.3781917645 -2.0896265542 0.3274327186
