10
0 1
O 1.2710633408 0.3458046034 1.3693965834
C 1.3862555494 -0.1678274632 0.2336213959
C 0.3937895859 -0.2305125519 -0.7532804993
C -1.0277761647 -0.0356994638 -0.2381183002
N -0.8578863752 1.1002587396 0.5808604904
H 2.2929694331 -0.7715975289 0.0096058021
H 0.6000917363 -0.4244961313 -1.8044314606
H -1.5894836605 0.2788210325 -1.1386599424
H -1.4887608722 -0.9480342104 0.1807837224
H -0.9693815730 0.8320529740 1.5717632082
