13
0 1
C 1.3087428524 -0.4380133304 0.8865014606
C -1.2140270324 -1.0598234986 0.0258493842
O -1.7651519285 0.2530842412 0.1413480924
C -0.9895038513 1.3480149430 -0.1147235354
N 0.2518970749 1.5168293899 -0.3415018317
C 1.2373243130 0.4712319555 -0.2541807090
H -0.3994967762 -1.1934477874 0.7874178580
H 2.0475981597 -1.2201381888 0.5763938905
H -0.8155367037 -1.2368693166 -0.9821560556
H -2.0338178149 -1.7545064814 0.2373684862
H -1.6540505844 2.2165430335 -0.1366243191
H 2.2212992154 0.9309197247 0.1030970957
H 1.4985690760 0.1307023153 -1.2764338169
