15
0 1
O -1.0292488838 -0.5169560230 0.6546789209
C -0.1124804164 -1.1764663931 -0.1084727039
C -0.2564368266 -2.4836373913 -0.3166308899
C -1.1648725890 0.8738021948 0.3957088035
C 0.1597714230 1.6036695108 0.5161738969
C 1.1969617323 0.8791725730 -0.2867693437
C 1.0344011277 -0.4038787469 -0.5933364171
H 0.4979705547 -3.0324700360 -0.8616192594
H -1.1123495178 -3.0161842282 0.0743144149
H -1.5773886360 1.0138925488 -0.6108037694
H -1.8948423243 1.2330238710 1.1200369506
H 0.0405944901 2.6301281358 0.1596581444
H 0.4681921629 1.6675955164 1.5652663489
H 2.0801804790 1.4155107354 -0.6148078051
H 1.7625782241 -0.9411902672 -1.1881452913
