12
0 1
C -1.5000403269 0.2030623366 -0.0790758212
C -0.0291345009 -0.8481774807 0.8169779743
C 0.9697256578 -1.1057926916 -0.1683632270
N 1.5705913463 0.0645121200 -0.5167296325
N 1.0716011813 1.1607012711 0.0431991725
C 0.0452568826 0.6096633091 0.8189038341
H -1.4878367790 1.1217197893 -0.6772238224
H -1.6167860439 -0.6577691689 -0.7358952570
H -2.2802041645 0.2196344303 0.6805001089
H 1.3211906190 -2.0425961015 -0.5943878824
H 2.3731092190 0.1813325097 -1.1382969042
H -0.3659180908 1.2627656765 1.5869034569
