16
0 1
C -1.2442139069 -1.1923742778 -0.1574926756
C -0.3875009072 0.0564531458 -0.1141272174
C -1.1607862246 1.3452218258 0.0574381571
C 0.9921626069 -0.0249714038 0.6495971162
C 1.5606983294 -0.1218114978 -0.6782034944
O 0.4506536014 0.1075548092 -1.4128540831
H -1.9930770033 -1.1287450151 -0.9586352680
H -1.7717166244 -1.2956788165 0.8010824775
H -0.6286827172 -2.0872121920 -0.3118146075
H -1.9724293446 1.4258747234 -0.6784668874
H -0.5019569649 2.2166666703 -0.0433837519
H -1.6051217261 1.3619480786 1.0635172687
H 1.4417913948 -0.8184194581 1.3213661059
H 1.1466034216 0.9032342767 1.2100298648
H 2.4661310889 -0.4992148606 -1.1372381979
H 3.2502879762 -0.3647020081 1.2560801931
