16
0 1
C -1.3691904569 0.0246023652 1.4347856638
C -1.1064899549 0.1835843171 0.0672374295
N -0.8772451350 1.2980529520 -0.7840400880
C 0.0498672736 0.1479809088 -0.8300468677
C 1.4273619511 0.3838981923 -0.2819232296
C 2.1271563827 -0.8823883798 0.1263220197
O 1.6499077652 -1.9803518483 0.0401425612
H -0.7873062843 -0.6888723298 1.9992207316
H -2.0679309965 0.6848459152 1.9268702064
H -2.0686747101 -0.6425783508 0.2544553110
H -2.0983215950 -0.6158092136 -0.8389266165
H -1.4924331015 1.3151851468 -1.5875782727
H -0.0200922692 -0.5207367001 -1.6790185135
H 1.3855211738 1.0444751864 0.5888422623
H 2.0558584945 0.9006075974 -1.0161587672
H 3.1502014625 -0.7432047586 0.5325791696
