17
0 1
C 1.9017999870 0.6240083137 -0.7205361759
C 1.5718782361 -0.2169069588 0.4699733617
C 1.2265123181 0.2446541830 1.6628744291
O -2.0612895471 -1.5887545675 0.3519613011
C -1.5959321386 -0.7704539799 -0.6089190789
C -1.9445431376 0.6606808517 -0.3421796585
O -0.9696615937 -1.1803014394 -1.5491515343
H 1.2382653940 0.3773325293 -1.5529508721
H 2.9237954255 0.4334327449 -1.0580521117
H 1.8070281444 1.6880152437 -0.4970915030
H 1.6186386195 -1.2928108194 0.3181906117
H 1.1681687560 1.3105605740 1.8622291023
H 0.9947651478 -0.4227206866 2.4839751863
H -1.7766181317 -2.4813834950 0.1189550398
H -1.3832585243 0.9938984600 0.5322277940
H -1.6774067789 1.2680269592 -1.2021999799
H -3.0065911767 0.7586610873 -0.1192179119
