10
0 1
C -1.4260806481 0.0038418182 0.1846226075
C -0.2063077678 -0.5507272779 0.5861397334
N 0.7775799373 0.2434032771 1.1475906074
C 1.5326149991 0.3868674944 0.0760291773
N 1.0870680944 -0.2878264036 -1.0634826484
O 0.2878752077 -1.3482694775 -0.4215584288
H -1.8753190285 0.8127156573 0.7580483848
H -2.0851614174 -0.5828614588 -0.4554507984
H -0.2846625978 0.4351806741 -0.9981107979
H 2.3574932211 1.0888276968 0.0002951632
