13
0 1
O 2.0716132076 0.9412421957 -1.5013517112
C 1.6998145312 0.8143768025 -0.2883738947
C 0.8247239027 -0.2992821329 -0.2213711221
O 0.5769215122 -1.0379745212 0.9638125149
C -0.8190845152 -1.0476135283 0.6766478003
C -1.3875835914 0.3261321486 0.6918767800
C -0.6610435579 -0.1781255938 -0.5360034791
H 2.0871207127 1.4855438339 0.4777220521
H 1.5091247811 -0.1723359788 -1.5649121240
H -1.3626093827 -1.9670165719 0.8432121170
H -2.4638540150 0.3845503481 0.5820385748
H -0.9433150944 1.0814146597 1.3298028192
H -1.1210254909 -0.2511806617 -1.5092843271
