18
0 1
C 2.5945859217 0.8696996106 -0.0424487894
O 1.5275442143 0.8500041580 -0.8080096429
C 0.5696029534 -0.0050565972 -0.6486108422
C -0.0665620464 -0.4553887080 0.6374178919
N -1.3078648888 -0.6600344120 -0.1324958949
C -2.5332684985 -0.1742005548 0.4487456860
C -0.7809819678 0.0727471900 -1.3040301812
H 2.5058073596 0.5190372487 0.9775981475
H 3.3269552528 1.6044209786 -0.3353420236
H 2.6895884078 -1.0459960186 -0.5729081099
H 1.9832878963 -1.3244422769 -0.8210090281
H 0.3116206561 -1.3444961775 1.1463812292
H -0.1244389349 0.3770929202 1.3651464957
H -2.4878640730 0.8947196596 0.7207650802
H -2.7669095969 -0.7462395240 1.3486812444
H -3.3543587594 -0.3126013026 -0.2571104767
H -1.1575194565 1.1050876074 -1.3824570507
H -0.9277094397 -0.4366318015 -2.2587477354
