19
0 1
C -2.4411344650 -0.2466769722 0.9271859762
O -1.0548720155 -0.4072596154 1.0632857406
C -0.2778513617 0.3018477952 0.0965992735
C -0.3447564744 1.8069289445 0.3151151612
C 1.1329813110 -0.2056749683 0.1627942641
C 1.4159092863 -1.4978629813 -0.3343374688
O 2.1812094253 -0.8782151267 -1.9030048373
H -2.7821236777 0.7523024531 1.2242031210
H -2.9185723165 -0.9792038757 1.5779161582
H -2.7663342061 -0.4302688591 -0.1067697148
H -0.6945599842 0.0683225124 -0.8973719513
H 0.0443746246 2.0581818623 1.3041725241
H -1.3650043943 2.1857536756 0.2414744791
H 0.2580762980 2.3199495505 -0.4353667195
H 1.7245298327 0.1340969689 1.0087258387
H 1.8457739275 -0.0369639278 -1.0772122611
H 2.2437931248 -2.0745966523 0.0613536598
H 0.6403680406 -2.0860219501 -0.8104936399
H 3.1342180247 -1.0173078336 -1.9665716041
