13
0 1
C -1.3024936024 -0.7364961205 -0.0860154304
C -1.0254671864 0.7177671042 -0.0076744727
O 0.1400108248 1.2430288899 0.2586658581
C 1.3478128338 0.7022118653 0.4930268986
C 1.6363708497 -0.6640942913 0.5536376706
N 1.9638978860 -1.7981958382 0.6241294401
H -1.0891116766 -1.2486506132 0.8665577334
H -2.3596344026 -0.8885350452 -0.3343804275
H -0.6859284867 -1.2326675819 -0.8514916719
H -1.7821525493 1.4848177576 -0.1436511284
H 0.2960027580 0.6625302076 -2.6859522378
H 2.1005449672 1.4586858950 0.6731812290
H 0.9870447846 0.4964027709 -2.4572234612
