11
0 1
C -1.4744470125 1.0159124707 -0.2742615467
C -0.4383908670 -1.1475933971 0.4365176920
O -0.8437467534 -2.0489304639 1.0443683264
C 1.7448971425 -0.7358662062 0.1040784587
C 1.3495775578 0.5217571492 -0.2567316452
N 0.6980607747 1.4907310693 -0.5168787309
H -2.0864027147 0.5402314236 0.4899813523
H -1.6356995887 0.6596346010 -1.2887634216
H -1.3874713578 2.0905880383 -0.1620029825
H 1.9947254559 -1.4595589896 -0.6718934667
H 2.1612533632 -0.9074646954 1.0969359642
