19
0 1
C -2.1133940571 -0.7989355445 -0.0297353365
C -1.5373491742 0.5989633201 0.1135332385
C -0.6708309308 0.8197911236 1.2623002832
C 1.5093516060 0.1177935047 0.0319664273
C 2.5598129073 -0.9483504077 0.0174473306
C 0.7146580959 0.4310522734 -1.0398902809
C -0.5543327994 0.9931795336 -0.9507785086
H -1.3052517248 -1.5338137776 -0.0289491361
H -2.7856639262 -1.0223249545 0.8028005157
H -2.6666974553 -0.9034358332 -0.9648901240
H -2.3393851732 1.3449645753 0.0938596244
H -0.4937792927 1.8312717162 1.6015640616
H -0.3676939297 0.0123608231 1.9141750652
H 1.5221679608 0.8088082289 0.8603199312
H 2.6083329884 -1.4462315200 -0.9525444322
H 2.3377126899 -1.7191453524 0.7616773866
H 3.5490957374 -0.5513780297 0.2612216324
H 1.0797482379 0.1991338125 -2.0433669981
H -0.8941477602 1.6760085082 -1.7281166804
