14
0 1
C 2.3340082200 -0.1561278217 -0.5273868447
N 1.2346674401 0.7259721595 -0.8384968208
C 0.0879007012 0.3935316224 -0.3724065017
C -1.0566689986 1.2171345250 -0.0646727673
O -2.2018693435 0.6712541274 -0.1437350196
C -1.9171293618 -0.8108840137 -0.3898784066
O -0.6930403017 -0.8649705667 -0.9187134535
H 2.2561342527 -1.1265325151 -1.0352523011
H 3.2692556392 0.3053490103 -0.8468910192
H 2.4197251188 -0.3586980519 0.5541151066
H -0.9873336050 2.2246409013 0.3304389867
H -0.0015967112 0.1837453818 0.8363810007
H -2.7080237574 -1.1661336852 -1.0493738958
H -2.0057422927 -1.2212240733 0.6296699364
