18
0 1
C -0.8653452326 1.2350235113 -0.2799776303
C -0.4164567733 -0.2320980157 -0.2191157477
C -1.3326321603 -1.1300839623 -1.0634861715
C -0.3380230494 -0.7241733398 1.2336439114
C 2.7175734768 0.2638990366 -0.2618827359
O 2.6272910820 1.2669960179 0.6112412463
H -0.8811060025 1.6033029349 -1.3159130064
H -0.1924407510 1.8792816883 0.3053105447
H -1.8786601309 1.3485739354 0.1354926371
H -1.3592320880 -0.7987824838 -2.1115493919
H -0.9904982627 -2.1748724615 -1.0454462123
H -2.3624468558 -1.1052951910 -0.6736921581
H -1.3298262488 -0.6794071283 1.7102113997
H 0.0122042867 -1.7654177108 1.2823714625
H 0.3500892287 -0.1030773916 1.8245660786
H 2.8124020227 -0.6172991310 0.4343776921
H 0.5998037684 -0.2831464043 -0.6612330524
H 2.5315816900 2.0983340959 0.0968711341
