17
0 1
O 1.7814354835 0.1293045298 1.3534103335
C 2.0251140070 -0.1298082959 -0.0200310055
C 0.8141437679 -0.8168529312 -0.6192623463
C -0.4327424924 0.0546238021 -0.7665397910
C -3.4589199858 0.7291035842 0.3665732910
O -2.2755190150 1.2208977956 0.2729077383
C -1.0745482670 0.4499826875 0.5479094700
H 2.5561972172 0.5417885477 1.7370435015
H 2.9007606485 -0.7798729181 -0.1348699278
H 2.2283582612 0.8049699789 -0.5603027643
H 0.5864371277 -1.7030830285 -0.0185003550
H 1.0976081275 -1.1777874684 -1.6114542358
H -0.1927572330 0.9598315834 -1.3321719575
H -3.3429939994 -0.3401410747 0.7079887349
H -1.1760796545 -0.4932334321 -1.3534472059
H -0.4310166929 1.0900581760 1.1460074386
H -1.3640883004 -0.4251895366 1.1374680812
