15
0 1
C -2.4021985928 -0.6981631629 0.4063748697
C -2.0564816097 0.5034270519 -0.1601377980
C -0.0933061411 0.6942040581 -0.1334368021
O 0.4602943649 1.6221722369 -0.5538750285
C 0.3818104238 -0.6367290932 0.5494744059
C 1.6148547304 -0.7953675606 0.7095773894
C 2.9475953919 -0.2478092052 0.5317496863
H -0.5890920817 -1.1782946965 0.7521497756
H -2.5685144130 -1.5787025287 -0.2013524500
H -2.6673394845 -0.7707881813 1.4537187708
H -2.2181225625 1.4211001991 0.3975055223
H -2.1207535099 0.6212737206 -1.2378699476
H 2.8859594780 0.7411188443 0.0472853654
H 3.4568232137 -0.1369004316 1.4906460003
H 3.5608447924 -0.9022882508 -0.0900987593
