10
0 1
N -0.2432543195 1.0069317884 -0.8178416323
C -0.4300184055 0.2460963491 0.2592577109
O 0.4651981611 0.0181954566 1.1099069461
C 1.9046494391 -0.2623011293 -0.1747835861
O 2.9351962259 -0.5184000956 0.2060823708
C -1.7080552806 -0.5942093391 0.2599662725
O -1.9579797870 -1.3922061421 1.1120412181
H 0.3858954429 1.7784815510 -0.5980543537
H 0.9616742527 0.2417370314 -0.9417349935
H -2.3820857290 -0.3815434702 -0.5901009530
