11
0 1
C -1.6311228658 1.8291644317 -0.0558372176
N -1.0319841563 0.5310079518 -0.2501813855
C -0.9293869374 -0.5257935117 0.3324055805
O -0.7394388493 -1.6129490875 0.7778050861
C 2.4386107984 -1.6943542861 -0.1885558142
O 3.6461510482 -1.7774093410 -0.2761428103
H -2.7180130465 1.7446974415 0.0845502763
H -1.1976690438 2.3351255153 0.8185485313
H -1.4415665222 2.4429390073 -0.9438323049
H 1.8729540427 -0.8133539844 -0.5782099759
H 1.8124115319 -2.4843771368 0.2847460340
