13
0 1
C -2.2164893785 0.4209719015 -0.1471574089
C -0.7511887000 0.4802676230 0.1932900624
C 0.0862848603 -0.6761949090 -0.2640160740
N 1.0476273742 -1.2839870083 0.7673610374
C 1.5190734224 -0.5829046288 -0.1528232431
N 2.6573401693 -0.1235925289 -0.6876489616
O -0.2603488680 1.3997861136 0.8023044637
H -2.7234975340 1.3092360686 0.2218935788
H -2.3476571287 0.3398594850 -1.2293078511
H -2.6598618926 -0.4740509140 0.2962112425
H -0.3763119283 -1.3801917793 -0.9528251157
H 2.5879133873 0.6704378057 -1.2978247056
H 3.4841322166 -0.1726062290 -0.1158570248
