10
0 1
C -1.2463643574 0.2728331226 0.2085502161
C 0.0864683085 -0.2289858646 -0.2831381157
C 1.8151837068 0.0999801768 0.4069361002
O 0.8381454611 -0.8101832625 0.7775181459
H -1.8241699212 -0.5652028127 0.5995280162
H -1.8044999139 0.7416016544 -0.6028638456
H -1.0983796943 0.9972754561 1.0085943150
H 0.0623171506 -0.8968569917 -1.1442702931
H 2.3401837790 -0.3778989738 -0.4649419735
H 0.6802214807 0.7097854954 -0.5893465655
