11
0 1
O -2.3352081797 0.7853793311 -0.1400354634
C -1.1613899480 0.3051222268 0.2145952496
N -0.0714705951 0.9273382987 -0.1538504350
C 0.9517108231 0.1623563146 -0.4646844257
O 2.1936004379 0.6533567202 -0.5430025532
C 0.6977151684 -1.2216893189 -0.5230491745
N -0.5411440313 -1.6438039171 -0.4845933391
H -2.2373073006 1.5268236804 -0.7571180313
H 2.1761726503 1.5688333038 -0.2454890540
H 1.5005774784 -1.9133728268 -0.2856629916
H -1.1732565033 -1.1503438128 -1.1043207817
