14
0 1
C -1.6299119306 -0.9261095594 -0.0491684051
C -0.3611164997 -0.2912988698 -0.5551437567
C -0.0733460634 1.1420041569 -0.0236344846
N 1.3445795172 1.0574655055 0.2670995533
C 1.6851704497 -0.1998507999 0.2708997255
O 2.8577474258 -0.3668781341 0.7184402044
O 0.7924579306 -1.0845349354 -0.1219800694
H -1.6300923181 -0.9714438460 1.0409200955
H -1.7466537220 -1.9359193251 -0.4425381091
H -2.4874533184 -0.3317391952 -0.3713490719
H -0.3322158801 -0.3018493052 -1.6474711749
H -0.6646230486 1.3594582133 0.8728547923
H -0.3054501191 1.8948892624 -0.7778473380
H 2.5546295771 0.9371538320 0.8087990388
