13
0 1
C 2.0662677379 -0.9806113145 0.7756727649
C 1.9713525290 0.2329503782 0.3457258527
C 0.5805817683 0.4498520535 0.0254758704
C -0.3736386203 1.3434704526 0.2971656879
C -1.7111663106 0.7069210528 0.1222359817
O -1.4393595653 -0.6010552405 -0.4024249831
C -0.1197901473 -0.7924725579 -0.3849059744
H 2.7792458647 -1.6831154033 1.1816301449
H -0.2377195590 2.3491988228 0.6663318674
H -2.2626821321 0.6175139380 1.0636039928
H -2.3518788330 1.2058404460 -0.6087696590
H 0.2199637234 -1.4679093706 -1.1635076148
H 0.8612395443 -1.4936702571 0.6607180687
