13
0 1
C -2.0948376210 -0.8832524918 -0.0552807207
C -0.7731726214 -0.4838793784 -0.6809408667
O 0.0222142045 0.1779378018 0.3628833235
C 2.4476255197 1.2178214273 0.2798828597
C 1.2123152601 0.5773938769 -0.0619531146
N 1.9485689278 0.5974145388 -1.0934219686
H -2.6338999546 -0.0012426274 0.3138122608
H -2.7209702946 -1.3842048067 -0.8061252635
H -1.9368934847 -1.5744042991 0.7826060583
H -0.9024754908 0.2217523920 -1.5129388890
H -0.2051163301 -1.3506034659 -1.0453369396
H 3.2413413163 0.6704070275 0.7979418716
H 2.5245025688 2.3088520050 0.3197463889
