17
0 1
C -2.2420640543 0.2441805887 0.3473627710
C -0.7446913908 0.1406946641 0.5259090627
C -0.1004070206 -0.9393848519 -0.3316709010
C 1.4044808846 -0.9865554420 -0.0826901864
C 1.9449734700 0.4121157277 -0.0205993004
C 1.1461683390 1.4685463686 0.0819590841
O -0.2009001813 1.4257122181 0.2131155573
H -2.7259447400 -0.6807644124 0.6653860984
H -2.4884184585 0.4251816874 -0.7006916702
H -2.6417951035 1.0666604089 0.9411026715
H -0.5078350441 -0.0598091372 1.5805387687
H -0.3000578582 -0.7071880447 -1.3824160063
H -0.5690629959 -1.9019670109 -0.1155925101
H 1.6210691000 -1.5266396384 0.8454517235
H 3.0105689719 0.5835462919 -0.1010251582
H 1.5092522639 2.4891039256 0.0643744858
H 1.9012078176 -1.5442903436 -0.8810014901
