17
0 1
C 2.8417351761 0.3346734674 -0.4284188198
O 1.7719760199 -0.0560912573 0.3931981531
C 0.5604866260 -0.1431261423 -0.3065478944
C -0.5291835516 -0.4754612776 0.6894102513
O -0.8154271726 0.3736709276 1.5700093158
C -2.2177124815 -0.5531229548 -0.6135325327
O -2.8464902574 0.5242885556 -0.4746642098
H 3.7327264891 0.3753334546 0.1959016646
H 2.6668091793 1.3252252313 -0.8675855690
H 3.0086552947 -0.3845648048 -1.2411269625
H 0.3172959589 0.8151289625 -0.7908915860
H 0.6208721219 -0.9201327792 -1.0832590357
H -0.7101715579 -1.5273334219 0.9291529016
H -1.8178496266 1.2105629161 1.2213849465
H -2.6382320279 -1.4705829727 -0.1898904053
H -1.5398042255 -0.6531020670 -1.4659152497
H -2.4688809650 1.2446241627 0.6221160321
