15
0 1
C -2.5110823933 -0.3703143012 -0.1982909737
N -1.3182626372 0.1474386561 0.3351657371
C -0.2620040656 -0.6770184716 -0.0709184863
C 0.8933754510 0.1785410113 0.0248178980
C 2.3036973019 -0.1579907892 -0.3100941886
C 0.4016628705 1.3126862427 0.6290974594
N -0.9543265790 1.3025530536 0.7892051244
H -1.2198684248 -1.2320787798 -0.7922510967
H -2.6280505879 -0.1137607420 -1.2463157752
H -3.4031638550 -0.2090831294 0.4006723969
H -0.2092149840 -1.6115930886 0.4905848156
H 2.9839868381 0.6203758592 0.0347370080
H 2.4356471427 -0.2664740706 -1.3887039870
H 2.6082634309 -1.1023070915 0.1482787354
H 0.9569524918 2.1805546411 0.9557073326
