12
0 1
O 0.2559132390 -1.5902632748 1.9090585605
C -0.1218648292 -1.0059537862 0.9574507816
C 0.2959425738 -0.8620384529 -0.5532224730
N -1.1202488683 -0.5759502632 -0.7405524661
C -1.3075678132 -0.0856142418 0.5384304520
C 0.2854516505 1.3387645167 0.3160602951
C 0.9847369266 0.4918427172 -0.4151247174
H 0.7694777839 -1.6417659565 -1.1490963734
H -1.4514160238 -0.0598642958 -1.5445627764
H -1.1420738798 1.0905686953 0.6874262036
H 0.5848264090 2.2932106078 0.7294584648
H 1.9921308314 0.6464677341 -0.7823959513
