14
0 1
C 2.4614605609 0.0035020648 0.2872284458
C 1.0660934786 0.1693497938 0.3120538928
C 0.0511808066 -0.7752953629 -0.0532306202
C -1.1710891021 -0.0167706768 -0.1409613674
N -2.3940720237 -0.5608042301 -0.5181269883
C -0.8629572440 1.2629972143 0.1343729502
O 0.5064880618 1.3870645956 0.3949495292
H 1.2803530448 -0.2679769554 -0.8479076626
H 2.8726059391 -0.9895127472 0.3795521669
H 3.0955723802 0.8731549503 0.3376850182
H 0.1800706188 -1.8448881110 -0.0896032636
H -2.5271341775 -1.5106551277 -0.2113032783
H -3.1898844024 0.0085070698 -0.2811778315
H -1.4269889412 2.1777205226 0.1575570087
