15
0 1
O 0.0658179591 0.1904263804 -1.7613287528
C -0.1387114205 0.8003296920 -0.5806378126
C 0.5871454867 -0.2271646531 0.8417748237
C 2.0363547426 -0.2315937390 0.4087355972
O 2.4947476234 -0.0145158307 -0.6812403352
C -1.2752740262 -0.4681911919 0.4008513388
C -1.6184324384 0.7838742057 -0.2784875350
H 1.0302872852 0.1325733477 -1.8513210457
H 0.5439255517 0.4542414116 1.6937573627
H 0.5490292482 -1.2460692097 1.2898238997
H 2.7183044115 -0.5181358711 1.2379222872
H -1.5564072786 -0.5960907031 1.4381477217
H -1.3043214758 -1.3656189901 -0.2033715042
H -2.2151827459 0.6905878521 -1.1797438098
H -1.9483789232 1.5939372990 0.3639287640
