16
0 1
C 1.8613971967 0.8447295648 0.2877604379
C 1.0893064946 -0.3466678735 0.1692474890
C -0.4142058862 -0.4129478384 0.8021548526
C -1.0923352445 -1.4982433550 0.1285917144
C -0.4309953153 0.3966421317 -1.2548048161
C -1.0212317523 0.7853621734 0.0744392215
N 0.8094547603 -0.0694864110 -1.2231407036
H 2.9364204379 0.8221218452 0.4140973841
H 1.3876559153 1.8139775212 0.2567680691
H 1.6476699227 -1.2721139385 0.3015634689
H -0.3283771858 -0.4477279720 1.8890765562
H -0.7626841311 -2.5276709843 0.2306891670
H -2.0410211941 -1.3417562249 -0.3615811480
H -0.8457104941 0.7109208739 -2.2088089295
H -0.6993740041 1.7747553694 0.4109409704
H -2.1108495201 0.7651441182 0.0833012660
