18
0 1
C -1.2362809666 -0.8206903410 0.7062587423
C -0.5946597518 -0.1316633391 -0.2843544617
C -1.0789261972 1.2050251875 -0.7658668314
C 0.9376525916 0.2680798342 1.4161444760
C 1.7001649212 0.0292614168 0.1239235421
C 0.6916903138 -0.6697402138 -0.8563774249
H -1.8669169202 -1.2954359957 -0.9884380496
H -0.9073541262 -1.8134568542 0.9995834977
H -2.0891430221 -0.3879224236 1.2261278933
H -1.4608259693 1.0767843551 -1.7899787993
H -0.2525183271 1.9260010345 -0.8013086010
H -1.8821812732 1.6040446830 -0.1357844549
H 0.8884948560 1.2843629352 1.8074481836
H 1.0090663489 -0.5046241416 2.1840485198
H 2.6091534118 -0.5840100655 0.2347228866
H 2.0075479685 0.9876159997 -0.3174784400
H 0.7182375144 -1.7621565864 -0.7591507626
H 0.8317226275 -0.4051594851 -1.9126919159
