12
0 1
O 0.9598158415 1.0156281220 1.7649205203
C 1.4982618393 0.4419880643 0.8633126989
C 0.7705047650 -0.1533592075 -0.3470086370
O 1.4525495774 -0.5565922268 -1.3508867748
N -0.0598073281 -1.3608173154 -0.0629472911
C -1.3051863521 -0.6588396707 0.0427379023
C -0.6585523748 0.5293630302 -0.6362434043
H 2.5961045105 0.2995602058 0.8005262040
H -1.4762444527 -0.4614396970 1.1129592410
H -2.1744594756 -1.1540418687 -0.3884603849
H -0.7927021514 0.5644842736 -1.7103397557
H -0.7566163992 1.4882462903 -0.1350063189
