15
0 1
C -0.4101940497 1.3605662840 -0.1418136378
C -0.2593848886 0.1004079289 0.4448380887
C -0.8402935754 -1.1047301822 -0.5048594503
C -1.5054529820 -0.8039968659 0.7355561975
O 0.8732646287 -0.1563945255 1.0408121114
C 2.0616191764 0.2200438506 -0.2219178840
O 2.3104805212 -0.7481129715 -0.9077749807
H -1.1803411479 1.5585979046 -0.8786209725
H 1.2767255287 1.0112270094 -0.6592456733
H 0.0822857498 2.2172836983 0.2991278816
H -1.2782502909 -0.7886458864 -1.4409505830
H -0.0977368252 -1.8869202891 -0.5507225901
H -2.4644689076 -0.3063252438 0.7282619724
H -1.2992985756 -1.4185712865 1.6012680579
H 2.8196806381 0.7375265751 0.3944274623
