17
0 1
C 2.6460431390 0.4962193209 -0.2552955408
O 1.5091761791 -0.0204632244 0.3876313530
C 0.3969470512 -0.1476987871 -0.4695010116
C -0.7808311472 -0.5779266194 0.3838724385
O -0.9543235483 0.3208002206 1.4643382588
C -2.0880938562 -0.5850352666 -0.3893883165
O -2.4439605964 0.7032080101 -0.8343850203
H 3.4349662320 0.5830741841 0.4903776879
H 2.4465330211 1.4867128288 -0.6830506402
H 2.9850837704 -0.1693934334 -1.0586744020
H 0.1759399270 0.8113969320 -0.9551174882
H 0.5921771877 -0.8965365053 -1.2496143944
H -0.5884887607 -1.5909112590 0.7642465556
H -0.0761140958 0.5344419334 1.7942489698
H -2.8692561005 -1.0078805669 0.2541339457
H -1.9994463448 -1.2202799649 -1.2734440666
H -2.3863520576 1.2802721970 -0.0665947704
