16
0 1
C -1.5447840108 -1.2701032780 -0.0588963702
C -0.4931994595 -0.2963691046 -0.5504728756
C -0.6537083367 1.1974563321 -0.1828723056
C 0.8452005551 1.2902515550 0.1555528167
C 0.8496597903 -0.2862461341 0.1600324061
N 1.9686997635 -0.9454332100 -0.2274111162
O 2.7397504380 -0.8676553706 0.7861496295
H -2.5068035682 -1.0832659122 -0.5417901541
H -1.6821926133 -1.1769240857 1.0209043254
H -1.2540753208 -2.3005217545 -0.2726583433
H -0.3376105529 -0.4156652292 -1.6277637629
H -1.0114882892 1.8655520076 -0.9647217938
H -1.2761762341 1.3223269299 0.7042813904
H 1.1264344637 1.8073986564 1.0693482386
H 1.4427409115 1.6663326839 -0.6758711191
H 1.6522984634 -0.3999260860 1.3397920343
