20
0 1
C -1.3787935599 1.2893692747 0.3266070787
C -0.5479556601 0.0413627304 0.4314621574
N -0.2116985516 -0.8714664957 -0.9683308448
C -1.5922423856 -1.4284668328 0.1751903601
C 0.7508688350 -0.0982269723 -0.3107561676
C 1.8801286398 -0.8186182217 0.4200014599
C 1.2299705891 1.1304859931 -1.0699807442
H -2.2897821486 1.1945857280 0.9219901801
H -0.8263334392 2.1544383736 0.6991520772
H -1.6678289718 1.4782680709 -0.7059071148
H -0.3842156168 -0.3075512376 1.4512249833
H -2.0997908693 -1.6872758577 -0.7445866475
H -1.1474025987 -2.3005997850 0.6427603942
H -2.3467600341 -1.0017423960 0.8483524176
H 2.4216494097 -0.1556501344 1.1004232584
H 1.4897551241 -1.6643320793 0.9889809747
H 2.5935178024 -1.2113276101 -0.3079372634
H 0.4146711231 1.6049589969 -1.6119455128
H 1.9813154478 0.8264917498 -1.8021785504
H 1.6943778650 1.8618697054 -0.4028734962
