15
0 1
O 0.8905968110 -1.0880773933 -0.8382456087
C 1.5096312998 0.1507005053 -0.3953673393
C 0.3233752471 0.6147309178 0.4193795244
C -0.8814042321 1.1429354420 -0.4088677705
C -1.5918870196 -0.2359084558 -0.3147131536
C -0.3383052360 -0.7884869244 0.3211909522
O -0.1008613576 -1.8756178241 0.9721522498
H 0.8177046303 -1.8667243893 0.1102371306
H 1.7642546596 0.7660218050 -1.2587033344
H 2.4113856768 -0.0508991705 0.1862967270
H 0.4981261850 1.0748579240 1.3890283306
H -1.4198635934 1.9666962132 0.0551618764
H -0.6145648731 1.4267770089 -1.4267645075
H -1.9196446506 -0.7150489946 -1.2355162574
H -2.4088355473 -0.2531196646 0.4097191807
