17
0 1
C -2.2258228404 0.2549969167 0.1721060410
C -0.7341547446 0.1740152348 0.4060319748
C -0.1572156323 -1.2093589180 0.1262689782
C 1.3413457395 -1.1530072765 0.0668761220
C 1.9834582377 -0.0007230074 -0.0495557404
C 1.2510954488 1.3006681836 -0.1824060408
O -0.1223553321 1.1351773905 -0.4380003431
H -2.7517951362 -0.4763594955 0.7886765190
H -2.4514605810 0.0520466664 -0.8766209013
H -2.5982502426 1.2498882323 0.4172946894
H -0.5117884685 0.4348050061 1.4534147720
H -0.5600285079 -1.5950073521 -0.8174512072
H -0.4763039530 -1.9044854510 0.9087516017
H 1.8941846029 -2.0844374929 0.1297413739
H 3.0677488042 0.0390029200 -0.0587823261
H 1.4005057200 1.9091182627 0.7245345105
H 1.6508368854 1.8736601801 -1.0224231949
