16
0 1
C 1.9265117238 0.1708976869 0.2329421971
N 0.9356855536 -0.6796401641 -0.2403859519
C 0.1155151667 -0.6299042212 0.9598815400
C -1.1947274937 0.0844552687 0.6015338319
C -0.7724345187 1.0844890618 -0.5006820433
C -0.3426149348 -0.2004755437 -1.2284373784
C -1.3698965219 -0.9009384903 -0.4867115557
H 2.9636748300 -0.0277121817 -0.0523024833
H 1.1621200166 -0.0332434419 1.5249415272
H 1.7128636155 1.2313648333 0.3899162017
H 0.1116491998 -1.5740987320 1.5081301165
H -1.8911069221 0.2942355302 1.4071040753
H -0.0179059538 1.8459872765 -0.2859287499
H -1.6479420580 1.5408785847 -0.9551122868
H -0.0746077529 -0.3101859562 -2.2715626982
H -1.7064449502 -1.9293455110 -0.4925653422
