14
0 1
C -1.5201592573 -0.2779669983 0.2642469917
C -0.5601548909 0.3787770404 -0.6821911837
C 0.6495721995 1.1241688217 -0.1357603639
O 1.8135787883 0.8119113924 -0.6607612358
C 1.4162075538 -0.4911187095 0.6651590756
N 0.7245735590 -1.4437204898 0.3146406105
C -0.4590258404 -1.0915550505 -0.4302405394
H -1.3959092987 -0.1043397038 1.3279938941
H -2.5460347990 -0.4106491461 -0.0512137113
H -0.9026882622 0.7351999672 -1.6461449963
H 0.6812833772 0.6379870802 1.0636265036
H 0.4600687531 2.1806087436 0.1313408422
H 2.3168926393 -0.3040935385 1.2251361415
H -0.7473495217 -1.8151774091 -1.1779610289
