14
0 1
C -1.4617967881 -1.0593085186 -0.6033020498
C -0.7216564664 0.2483529172 -0.6194435758
C -0.1855862405 0.8844920273 0.6039373239
C 0.8161989724 0.4040535463 -0.4792437556
C 1.7191953186 -0.2332766811 0.3611305792
O 2.2690127676 -1.1272860074 0.8399549058
H -1.0773057247 -1.7236719235 0.1716235701
H -2.5201905265 -0.8805245204 -0.4042490541
H -1.3815327042 -1.5666852238 -1.5661534722
H -0.9925710366 0.9052744908 -1.4430324171
H -0.2495271425 0.1506668168 1.4189504819
H 0.8908140211 1.6346045159 1.2155993782
H 1.2464757065 1.2516800982 -1.0006629200
H 1.8285208432 1.3412664623 1.3492550054
