19
0 1
C 2.0968791972 -0.3539594411 -0.3493165330
C 0.9660837562 0.0122009412 0.5986202963
O 1.5051100998 0.0492290417 1.9063478881
C 0.1366950388 1.1470982980 0.2648375914
C -0.7519742590 1.1232408377 -0.9022457225
C -1.6762447791 0.1842952182 -0.1621091028
C -1.3816858273 -1.2444618998 -0.1553921490
H 1.7333398382 -0.4046207171 -1.3766618900
H 2.5132216001 -1.3263698950 -0.0806863370
H 2.8870237364 0.3962808143 -0.2959272173
H 0.2311984811 -0.9133608525 0.5051585140
H 0.7951966266 0.2751635942 2.5100760388
H -0.0265277245 1.9140458890 1.0129824244
H -0.3505072910 0.6737217366 -1.8122297639
H -1.2137905808 2.0774519021 -1.1403776497
H -2.2653679419 0.5921777638 0.6485109345
H -1.0091962932 -1.7089068640 -1.0603670395
H -2.4544078567 -0.5594469522 -0.7729325683
H -1.7625058207 -1.8844584151 0.6290262856
