17
0 1
C 2.2450766668 0.0443669201 -0.0343804167
C 0.7744349479 -0.1998726812 -0.1646714944
C 0.0250628270 -1.1840045654 0.4544262359
C -1.3672186813 -0.9242583402 0.3220214648
C -1.4537643923 -0.0274508193 -0.9180641337
C -0.1690602985 0.6896773588 -0.7205493550
O -1.0150741733 1.5186507125 0.9441224906
H 2.4530713596 0.9341591450 0.5676984733
H 2.7196965611 0.1911988139 -1.0065917378
H 2.7357793428 -0.8016311040 0.4483459139
H 0.4436301229 -1.9730330557 1.0703135993
H -1.3434946713 0.2275822707 1.0094253719
H -2.1053489433 -1.6928229195 0.5192235505
H -1.3976713912 -0.6337074730 -1.8302649233
H -2.3193041271 0.6287730094 -0.9644516774
H 0.0785958715 1.6142242390 -1.2252434314
H -0.2483540212 1.6541514889 1.5044420695
