14
0 1
C -1.7102965058 0.1798652564 0.3327229166
C -0.6086714164 -0.6211064673 -0.3631361171
C 0.8082931665 -0.1159474314 -0.1437765641
N 1.8329249665 -1.0362808796 -0.3123918831
C 1.0025461423 1.2964535115 -0.4988978251
N 1.2201177561 2.3949500932 -0.8423243531
H -1.6653875773 1.2439174919 0.0634034803
H -1.6172268818 0.0998043437 1.4238158636
H -2.6966294026 -0.2029224640 0.0413110767
H -0.6140403958 -1.6799438418 -0.0754132753
H -0.7301606996 -0.5907582569 -1.4591153365
H 0.6798210362 0.1592404311 1.4579422658
H 2.7167666692 -0.5262854873 -0.4387344640
H 1.3762551424 -0.5607292995 0.9537272152
