12
0 1
N -2.1936872381 -0.4570873533 0.0630375564
C -1.0416407318 -0.0080879286 -0.3477668313
C 1.2373559584 2.1998180023 -0.4376464680
N 1.5771556809 1.1800296225 0.1220902533
C 1.8555700701 -0.0272279595 0.4344922330
N 1.1595582743 -1.1161523672 -0.0497764424
C -0.0584884114 -1.0990566776 -0.4382594524
H -2.9804898325 0.1678953997 0.1407903346
H -2.3809572952 -1.4269554465 0.3167177559
H 0.5064207899 2.8485760137 0.0531661078
H 2.7379562498 -0.2242981702 1.0267671990
H -0.4187545144 -2.0374521351 -0.8836112459
