17
0 1
C -2.1908121560 0.1711069019 -0.0369654862
C -1.1011012338 -0.8344464026 -0.3394417508
O -0.1547343577 -0.4144250663 -1.2875096315
C -0.0392320888 -0.9904890406 0.6586702008
C 2.1614468349 0.0134414117 0.2889195029
C 1.6520317584 1.2825815691 0.1912331384
O 0.8123841038 1.6897175093 -0.6960791882
H -2.8526739827 -0.1941089080 0.7521696185
H -1.7630338294 1.1265969518 0.2725166764
H -2.7862508074 0.3385189619 -0.9352935006
H -1.5370018302 -1.7938630746 -0.6410685611
H 0.3120559501 0.7440295028 -1.0934108837
H 0.0159940052 -0.3605590442 1.5329038218
H 0.5256504046 -1.9102011080 0.6821729098
H 2.1586141911 -0.6565406125 -0.5570401479
H 2.8287245535 -0.2101585327 1.1119253715
H 1.9129154844 2.0213669812 0.9543579097
