14
0 1
O -1.1965817757 -0.3562474568 1.4927335093
C -1.0287017469 0.1087690121 0.1560618539
C -0.1140195941 1.3279700440 0.2361270314
O 1.2176697245 0.9484041270 0.6076404646
C 1.7341467980 -0.0666113637 -0.0799411640
N 1.0409071075 -0.8363468375 -0.8375405793
C -0.4076973017 -0.9043439229 -0.7435759918
H -1.2854279073 -1.3101641095 1.4345410525
H -1.9986696754 0.4315157025 -0.2435466866
H -0.0850694212 1.8373359997 -0.7315779428
H -0.4368846189 2.0239730137 1.0070365585
H 2.7965903781 -0.2097805007 0.0635028133
H -0.8471564848 -1.1110499699 -1.7114618070
H 0.6773125182 -1.8810437380 -0.6330031122
