13
0 1
C -1.3051687658 -0.7472200974 -0.1928999955
C -0.9230131710 0.7020165809 -0.2689347827
O 0.1744745957 1.2182278463 0.2941520821
C 1.4168429877 0.7039909707 0.0951025488
C 1.7393747642 -0.6546847488 0.3588345028
N 2.0662147722 -1.7703199481 0.5472302384
H -1.6050059938 -1.0109851044 0.8362826361
H -2.1712321686 -0.9137314433 -0.8465526658
H -0.5000758405 -1.4228975764 -0.4935413973
H -1.7281622447 1.4383986614 -0.2322769349
H 0.0041619689 0.6206158050 -1.7322478858
H 2.1785226834 1.4440237170 0.3293342988
H 0.8413114122 0.5609763372 -1.6304396449
