17
0 1
O 2.3946374843 -0.8585378185 1.0444228035
C 1.2191031568 -0.2792618253 0.6905411129
C 0.0942208662 -1.1823420892 0.2670207307
C -1.2712258402 -0.5299783821 0.4792544426
C -1.2699647320 0.9151712116 0.0617978205
C -0.1544398784 1.6363209610 0.1656012221
C 1.1003480635 1.0484182404 0.6289143950
H 2.2867010659 -1.8105499252 1.0773233373
H -0.4124385056 0.0512702240 -3.3941956994
H 0.1405004673 -2.1283449863 0.8162095050
H 0.2413170807 -1.4254966247 -0.7932249740
H -1.5375213458 -0.5864214496 1.5434362813
H -2.0353315266 -1.0933867356 -0.0593213181
H -0.4273487182 0.3950042680 -2.7317250031
H -2.1983669202 1.3666444578 -0.2667378188
H -0.1597628516 2.6903418134 -0.0884062063
H 1.9435721338 1.6799586604 0.8766153687
