14
0 1
O -0.8042141760 2.0960859527 -0.6041686110
C -0.4840673029 1.0427428650 -0.0548433186
C -1.5472136189 0.1416725330 0.4750313848
C -1.3508540439 -1.0278903116 1.1121861826
C 1.3543280141 -0.3341303325 -1.1125740465
C 0.9780821393 0.6167003362 0.0433543029
H -2.5607059317 0.5079289966 0.2982813467
H 1.1693249633 0.1501086357 -2.0805187474
H -2.1906784017 -1.6287582649 1.4630695853
H -0.3554630915 -1.4275854221 1.3070901919
H 2.4186013994 -0.6002553877 -1.0588113702
H 0.7651663621 -1.2600885696 -1.0766071236
H 1.1849910447 0.1323736427 1.0084087308
H 1.5841906437 1.5295243264 -0.0159175077
