10
0 1
N 1.7937800673 0.1008063170 -0.5271545354
C 0.4714921486 0.0591495745 -0.0724718127
N -0.2743686871 -0.9872985289 -0.2071907902
N -1.5810035705 -0.9423962613 0.2043558579
C -0.6840614173 2.1238398519 0.9188897416
N -0.0191837581 1.2550718796 0.4403810364
H 2.4338890334 0.5122875335 0.1525748447
H 2.0989273473 -0.8353133413 -0.7912125272
H -2.0095947111 -0.0079340385 0.1908825807
H -2.1238294526 -1.6016409865 -0.3495593957
