19
0 1
C -1.6051206937 -0.9727384017 -0.6339906485
C -0.8190786707 0.1638181768 0.0101813036
C -1.6913931571 1.0276685439 0.9147830525
C 0.3428704675 -0.3714364619 0.8111293740
O 1.3941369371 -1.0093883110 0.1007595687
C 1.5573643786 0.3987541008 1.0652399646
C 2.4137726604 0.1282562165 -0.7524182049
H -2.4155232892 -0.5863139800 -1.2551787139
H -0.9604085563 -1.5901275150 -1.2621864172
H -2.0502499269 -1.6198348488 0.1273985486
H -0.4059979140 0.8007171799 -0.7781657406
H -2.1119620602 0.4358820183 1.7331670586
H -2.5253247147 1.4594380327 0.3584323573
H -1.1138291066 1.8454518667 1.3501238831
H 0.0446944685 -1.0612535795 1.6037389129
H 2.0914245646 0.0030075940 1.9370274125
H 1.8207609732 0.8746917595 -1.2626175322
H 2.6810406717 -0.6962753130 -1.4161242335
H 3.3112919680 0.5626749219 -0.3266639455
