13
0 1
O 0.2511031078 0.6555232633 1.5699003259
C 0.5718110739 0.9362406944 0.3992328894
C 1.5846187950 0.0193541054 -0.2904725729
O 0.6096148460 -1.0140820372 -0.6296354066
C -0.7125390568 -0.3924591528 -0.4940946399
C -1.2717710457 -0.4854941320 0.8704940447
C -0.4737326537 1.0744217456 -0.5594726786
H 2.3208365389 -0.4129584715 0.3841799810
H 2.0494673664 0.4346919018 -1.1835941429
H -1.3940492306 -0.7965600717 -1.2449732384
H -0.8449273559 -1.1315376269 1.6247850092
H -2.3083959131 -0.1949071439 0.9954192331
H -0.2953754722 1.4765089253 -1.5508258038
