17
0 1
C -2.3099543874 -0.6288579932 -0.6529327054
C -1.2270667585 0.4379200372 -0.7423235133
C -0.1169219274 0.2182276131 0.2573357959
O 0.6263394625 -0.9964217341 -0.0033204221
C 1.1620129009 1.0534671685 0.1128502403
C 1.8641566155 -0.2914729034 -0.0280125818
O 2.6771474472 -0.5599430850 1.0680647870
H -3.0859604967 -0.4681990459 -1.4028144987
H -1.8837982717 -1.6207238718 -0.8116565964
H -2.7881023040 -0.6229234760 0.3295318039
H -0.7921359586 0.4522491540 -1.7466641862
H -1.6528855678 1.4314381474 -0.5641471740
H -0.5197430079 0.1988513646 1.2763563192
H 3.0119137732 -1.4564511468 0.9914697538
H 1.4742682254 1.6231458360 0.9847020609
H 1.1915310565 1.6772850409 -0.7793557598
H 2.3983881988 -0.4965471054 -0.9629653236
