15
0 1
C 2.3301248877 0.1073235852 -0.4182820164
C 0.8444710718 0.2444942864 -0.7469127819
C 0.0042800696 -0.0507322307 0.4601620375
C -1.7944286080 0.0395546490 -0.0586673270
O -1.3859610307 1.1190430860 0.5227293422
N -2.8841596230 -0.5134611001 0.5032946413
H 2.9360964496 0.2931077397 -1.3060609199
H 2.5722811133 -0.8958071063 -0.0589061651
H 2.6354841039 0.8220825317 0.3489052814
H 0.6266270274 1.2619795710 -1.0735593048
H 0.5604608363 -0.4228576194 -1.5606780862
H -0.1186342237 -1.1107375825 0.6833259830
H 0.3593647695 0.4456314355 1.3659033393
H -3.3487185132 -0.0467501271 1.2737198116
H -3.3372893305 -1.2928711184 0.0650261650
