11
0 1
C -0.9499026771 0.3471055373 -0.0511966865
C -0.0386773306 -0.2403212252 -1.1354917542
O 1.3053692722 0.0168591750 -1.5924548108
C 1.2912794857 0.1542928722 -0.2207333198
N 0.9942988678 -0.6229327725 1.0016229215
C -0.2616652332 -0.3593582794 1.1768104865
H -0.9066124562 1.4410424262 0.0698200616
H -2.0035072822 0.0547981165 -0.1869151987
H -0.1890968410 -1.3240859645 -1.1809316015
H 1.5127260681 1.1881730315 0.0704952504
H -0.7706408734 -0.6381129172 2.1063096514
