13
0 1
C 2.2197696602 0.3632512550 -0.4252954929
O 1.3102671556 -0.7166193933 -0.2583003189
C 0.0491135279 -0.3857282168 0.0029615880
C -0.9807221541 -1.3052025877 0.2171143576
N -2.1054758175 -0.6197853267 0.4856282859
C -1.7037067369 0.7311883834 0.3314928546
N -0.3986818071 0.8674062758 0.0619448881
H 1.9229198562 0.9942710978 -1.2643998386
H 3.1874098967 -0.0930162081 -0.6187800684
H 2.2625783235 0.9741382985 0.4778004251
H -0.9615066768 -2.3805811773 0.1505431528
H -2.4574421343 0.0856515629 -0.5136939932
H -2.3425450931 1.5288030366 0.6834391597
