11
0 1
N 1.8551942095 0.7301866734 0.7685679764
C 1.7149065109 -0.0814125949 -0.1450542056
C 0.6133431619 -1.0640480864 -0.3033792684
C -0.6268648957 -0.3600400544 0.3088192876
C -1.2230855956 0.8843376162 -0.2014720401
O -1.8122356169 -0.4440132991 -0.3878434106
H 0.9252081878 -1.9483235427 0.2677573648
H 0.3627177627 -1.3849253024 -1.3255626853
H 1.0124047319 0.7777908748 1.4176374047
H -1.7620531417 1.5443959904 0.4806821400
H -0.8642113147 1.3378417251 -1.1302015635
