14
0 1
O -1.9279015568 0.6454165782 -0.8023791127
C -1.3153092963 -0.8584695977 0.2813619865
C -0.0910687093 -0.1969998697 0.2392582613
C 1.0416844152 -0.1357079796 -0.7346755857
C 1.5847766582 0.9088809108 0.2717762198
O 0.3945645825 0.6917257111 1.1294766507
H -2.3029429731 1.2565133597 -0.1354645685
H -1.9935049466 -0.7709305884 1.1243669361
H -1.5514344524 -1.5626080864 -0.5107946697
H -0.2992117449 -1.7696223353 0.9488597930
H 1.6257463115 -1.0568674527 -0.8339482823
H 0.7369169426 0.2480114477 -1.7119301664
H 1.5990319355 1.9473076866 -0.0727505923
H 2.4942618339 0.6466242157 0.8218341302
