18
0 1
C 2.0964669942 -0.5611784676 -0.1291361653
C 0.7374256399 -0.0447310066 0.3885213793
C 0.5572427235 1.4310297473 0.0403493139
C -0.2352334678 -1.0303355400 -0.1866964419
C -2.2711426764 -0.2306495490 0.7001047775
C -0.6032143741 -0.8358286850 -1.5406324596
N -0.8674922353 -0.7862428288 -2.6656201841
H 2.2570480554 -1.6055990142 0.1362179493
H 2.8921946675 0.0394315132 0.3135347550
H 2.1642041805 -0.4645648173 -1.2147272026
H 0.7373983301 -0.1722218869 1.4745097999
H 1.3772665941 2.0226413311 0.4523410097
H -0.3732050490 1.8303445344 0.4459357273
H 0.5445649383 1.5760155849 -1.0424777628
H -1.4344898702 -1.0517982800 0.5440062111
H -3.1583649786 -0.8616213635 0.6720552890
H -2.0946091121 0.1871164876 1.6882280552
H -2.3180583597 0.5341772402 -0.0651910508
