16
0 1
C -1.6215777208 0.2649108071 0.7786874410
C -1.7851488909 -0.0760706401 -0.6908208072
C -0.4181043635 -0.0228909486 -0.0749613942
C 0.5851128186 -1.2373575879 0.1875443981
C 1.6827091083 -0.1436544385 0.2269264899
C 0.8109604795 0.8201846802 -0.3971741630
H -1.9272612890 -0.4813915593 1.5130727634
H -1.7888062897 1.2967470924 1.0868041070
H -2.0747204859 0.7185557828 -1.3803454583
H -2.1942158611 -1.0573382219 -0.9379991996
H 0.5903137950 -1.8846211621 -0.7003780930
H 0.4053355574 -1.8439153214 1.0884319073
H 2.7384474183 0.8572149551 -0.2680634436
H 2.0922959146 0.0394025610 1.2168830566
H 0.9107469157 1.0819103332 -1.4508084575
H 2.0406568937 1.7064556682 -0.1822711471
