15
0 1
O 0.7273146623 -2.6690195946 -0.2501764427
C 0.4580874332 -1.4951451727 -0.0479689515
C -0.9895859832 -0.9793192664 0.0010834107
C -0.8906248520 0.4233437139 0.5501053853
C 0.4015739949 1.3837051972 -0.9801089878
C 0.7486019919 0.8799189681 0.3238342038
C 1.3438708249 -0.4340901581 0.2918239380
H -1.4628540094 -1.0302085848 -0.9794443483
H -1.5538970769 -1.6274083667 0.6731898145
H -1.6189847891 1.1350998011 0.1752568427
H -0.9239699687 0.4582832819 1.6384095232
H 0.7226348352 0.8397289732 -1.8592137229
H -0.3529442658 2.1497311785 -1.1177408815
H 1.0070192157 1.6136242159 1.0909384186
H 2.3664639870 -0.6330511861 0.5826187976
