14
0 1
C 2.2976849155 0.2183191933 0.1790714826
C 0.8710649185 -0.0950518748 -0.1322253537
C 0.0733400562 -0.2151123346 -1.1699909325
C -1.2797365574 -0.6475863161 -0.8158609075
C -1.6279297622 -0.0917436710 0.6229168881
O -1.6138109362 1.2466314019 0.7779778144
H 2.3875825860 1.0293945173 0.9178701441
H 2.8135811476 -0.6606782840 0.5956401915
H 2.8206561384 0.5207004160 -0.7374727150
H -2.1067839893 -0.2634248016 -1.4461601829
H -1.3701758466 -1.7445211861 -0.8202714175
H -2.5375359373 -0.4751711982 1.1109359262
H 0.1417325548 -0.3733516423 0.8297878412
H -0.8148522880 1.5597337802 0.2839542209
