16
0 1
C 2.2950300170 -0.5612406151 -1.1684813896
N 1.0946272404 -0.0766486481 -0.5371729150
C 1.0493794447 1.0173772916 0.1853582928
O 0.0302424977 1.4855339066 0.7189316415
C -1.9793995492 0.6299954470 0.7564631213
C -2.1255463464 -0.7503023272 0.3171670206
O -1.3872698160 -0.5770050106 -0.8285894882
H 2.5118997356 -1.5839616960 -0.8548005973
H 2.1921873504 -0.5507704425 -2.2553834775
H 3.1448072936 0.0684877906 -0.8969704956
H 2.0048549183 1.5484067754 0.3222276666
H -1.6872996343 0.9354745677 1.7496515897
H -2.3756589640 1.3888625184 0.0975453915
H -1.7068248307 -1.4687484989 1.0400358094
H -3.1829400864 -1.0283692292 0.1519693936
H 0.1208157293 -0.4860718294 -0.7174375639
