14
0 1
O 0.9043407964 1.1561299114 1.6932673734
C 1.2644082837 1.2091304656 0.5489540065
C 0.4686775071 0.8865571649 -0.6684724563
C 0.3096868708 -0.5344808554 -1.1481082778
C -0.0557009356 -1.3561403893 0.1062240909
C -1.2151202973 -0.4261668736 0.4499894102
N -0.9580956446 0.5993051142 -0.6277235643
H 2.2999002064 1.5177229011 0.2987098924
H 0.6973473134 1.5887361595 -1.4674503696
H -0.8760751531 -0.1231141736 -1.6083358110
H 0.7384820821 -1.4054531525 0.8531161040
H -0.3561973004 -2.3710446169 -0.1435595629
H -1.2232795471 0.0373407123 1.4325593567
H -2.1885341817 -0.8692363676 0.2487148078
