16
0 1
C -1.6841125227 -1.2613010947 -0.2183999768
C -0.5363301282 -0.3543503477 -0.6270762917
C -0.4555758616 1.0384722300 0.0380142953
C 1.0738033572 1.2558669968 0.1774171714
C 0.7965797893 -0.6950987888 -0.1100801726
N 1.6785912242 -1.3199923298 0.4405486255
O 2.6161598773 -0.7070381849 1.0764517577
H -2.6294974675 -0.8276036530 -0.5489985003
H -1.7166529883 -1.3796438277 0.8656384920
H -1.5898594911 -2.2498221426 -0.6686832888
H -0.4923095279 -0.2558048419 -1.7156049428
H -0.9607701417 1.8271542019 -0.5223148797
H -0.9109951660 0.9755652769 1.0280408685
H 1.2793129313 2.0420805464 0.9123240536
H 1.5078840383 1.5750411823 -0.7713563083
H 1.9625510775 0.4703237769 0.7495670969
