10
0 1
C -2.1179362965 -0.1210583717 -0.5802267106
C -0.6792716502 -0.2921053564 -0.7639246055
N 0.4757540468 -0.4196008208 -0.9257377157
O 1.6791537183 -0.5559085115 -1.0865025785
C 2.7197578359 0.5566314948 1.6123488142
N 2.9158767379 1.0008728057 2.6731757215
H -2.6756314391 -0.8098470329 -1.2309256270
H -2.4015237281 -0.3261923659 0.4619194867
H -2.4214732829 0.9071089027 -0.8241743778
H 2.5221700579 0.1448502559 0.6292965929
