17
0 1
C -1.9409907975 -0.5987333410 -0.4886842073
C -0.7763420159 0.2345065458 -0.0227925442
O -0.8870393394 1.5167954925 -0.1844655294
C 0.0363377352 -0.2263228610 1.2085872195
C 1.4833395634 -0.3452727928 0.7096928294
C 1.4632454812 0.3435349651 -0.6596459235
O 1.3909743352 1.6313215233 -0.7005149819
H -1.6763266217 -1.6527419978 -0.5732605927
H -2.7420056986 -0.5051093397 0.2496820121
H -2.3115647201 -0.2284809324 -1.4431374094
H 0.2242899722 -0.0892494531 -0.9304359108
H 0.2110785969 1.8453994908 -0.3489667700
H -0.0848114186 0.5312550841 1.9834755178
H -0.3427623651 -1.1705595237 1.6025050169
H 1.7719856926 -1.3915975003 0.5880526843
H 2.2135535680 0.1361157793 1.3611373037
H 2.0169370324 -0.1329171391 -1.4801157143
