15
0 1
O 2.3872084066 -0.6757529434 0.8899782102
C 2.3383312588 -1.4710799176 -0.0073183722
C -0.7377099048 0.0782672258 0.9608834179
C -1.7569390651 0.9121930707 0.7159909795
C -1.9522035951 0.5390920222 -0.7430334784
C -0.7780886310 -0.4239302599 -0.4374130390
O -0.1833455958 -1.2304074678 -1.0917858153
H 1.7239015243 1.4303787010 -0.6500539114
H 2.0697055019 -2.5285127333 0.1628474041
H 2.5693740923 -1.1930346526 -1.0502653838
H -0.1178771527 -0.1394218147 1.8184639590
H -2.2791283801 1.6259069432 1.3394305320
H 1.4570071861 1.7332967947 -1.2779175340
H -1.7244702302 1.3155857750 -1.4758289439
H -2.8931494150 0.0516012568 -1.0043750248
