17
0 1
C 1.9895510652 -0.1800959507 -0.6475314236
C 0.8870055287 0.3482701430 0.2660977532
O 0.0384371679 1.1532679556 -0.5704903258
C -1.2535040732 1.2092581272 -0.0136596758
C -1.7962644590 -0.1887782713 0.1458179612
C 0.0429496274 -0.6305340076 1.0041615422
O -0.6676611052 -1.5393204396 0.0054792422
H 2.4668145201 0.6428824954 -1.1806359966
H 1.6078407716 -0.8673774280 -1.4089533370
H 2.7452682986 -0.7035675009 -0.0609200182
H 1.3492172020 0.9795497967 1.0401174639
H -1.8610953529 1.7729715950 -0.7290973040
H -1.2511486072 1.7119765660 0.9594123132
H -2.3619552121 -0.3865842270 1.0440334363
H -2.3174602146 -0.5297200368 -0.7574283394
H 0.6198992536 -1.2603617787 1.6831080199
H -0.1797654108 -1.6135600382 -0.8341513117
