16
0 1
C -1.2587304053 -0.2003476329 1.2170813013
C -1.3892028547 0.1728368657 -0.2508365990
N -1.4184359332 1.4542205790 -0.6630808099
C -0.0278497494 0.4537284789 -1.0741000830
C 1.2411564820 0.4254806808 -0.2525165056
C 1.7173791799 -0.9532978717 0.1173890706
O 1.2104294845 -1.9748315378 -0.2555620214
H -0.6745803711 0.5329311730 1.7718880569
H -2.2644849626 -0.2048933095 1.6417799008
H -0.8427736055 -1.2005552295 1.3469221411
H -1.9757124298 -0.5846585847 -0.7992592227
H -0.1106569777 1.4339671551 -1.5977255438
H -0.0768032768 -0.2728838551 -1.8829521633
H 1.1455935348 1.0271329006 0.6537329029
H 2.0623626941 0.8884584017 -0.8129944895
H 2.6194691910 -0.9744072138 0.7629440646
