17
0 1
C 2.6647223619 0.5156447656 -0.2110081086
O 1.5370201192 -0.0968214383 0.3636520689
C 0.3628702441 0.0895639330 -0.3910923765
C -0.7743232368 -0.4697898422 0.4361946866
O -0.8434199435 0.1523387912 1.6962744931
C -2.1334128544 -0.1901584203 -0.2099759417
O -2.3041167280 0.8504277932 -1.0017687037
H 3.5072392899 0.3376066699 0.4553585559
H 2.5155500082 1.5961223110 -0.3248438363
H 2.8907619503 0.0875860885 -1.1952285830
H 0.1796820816 1.1520119676 -0.5865615463
H 0.4280315847 -0.4315698538 -1.3574315312
H -0.6464502368 -1.5561490689 0.5543663273
H 0.0640885660 0.2843512307 1.9888188223
H -2.9538979288 -0.4836036901 0.4653082664
H -2.2115133796 -1.3534878637 -1.0321922608
H -2.3386638980 -0.4811043735 -1.4420713322
