15
0 1
C 2.0897822136 -0.9445080655 -1.5440277777
C 1.0825035127 -0.1750344785 -0.7736851650
C 0.9772774633 0.6631087195 0.1782804541
C -0.0256256874 1.3961510285 0.7550255908
C -1.4388180551 0.4636998666 -0.0640042414
C -2.1407546965 -0.4430335394 0.8739405337
O -2.6502612774 0.8037202528 0.3714608144
H 3.1002245577 -0.7095001084 -1.2138573747
H 1.9251009620 -2.0171249982 -1.4271845283
H 2.0089019647 -0.7155693453 -2.6079413938
H -0.1320560832 2.4308479753 0.4401211199
H -0.2575292337 1.2361075771 1.8063566939
H -0.0808914939 -0.2338029716 -1.0393447776
H -2.6318623577 -1.3270264948 0.4837314627
H -1.9125247892 -0.4406474182 1.9341425891
