14
0 1
O 2.0174939093 1.8446293803 0.8505047151
C 1.1503988052 1.1201478716 0.5588646759
C 0.2106035027 1.1994224715 -0.7301222295
C 0.1198217068 -0.0175319409 -1.3701988087
C 0.1141857301 -1.2721888735 0.5385482812
C -1.1703877051 -0.4555416010 0.5134217435
N -1.0497003936 0.4051649978 -0.6743687293
H 0.9404516055 -0.2628263503 0.6967465650
H 0.1937193586 2.1912045495 -1.1589608581
H 0.3229359739 -0.4728406290 -2.3250247499
H 0.3861686458 -1.6599299795 1.5261444306
H 0.1350773544 -2.1024597981 -0.1589417656
H -1.3027201741 0.1466840731 1.4143556538
H -2.0623613194 -1.0767521714 0.4029940762
