11
0 1
C 0.4880014227 0.9316089439 0.4071828496
C 0.8204763285 -0.4837302238 -0.0477094343
O -0.2348705790 -1.1025347358 -0.8960324574
C -1.4636862744 -0.6903737738 -0.7228063237
O -0.5682126100 0.9753230257 1.3392295054
H 0.2947524803 1.5488212717 -0.4934678673
H 1.3867604540 1.3398017722 0.8950319701
H 1.7153018112 -0.5224493134 -0.6810294051
H 0.9389236948 -1.1613106875 0.8060715790
H -2.0309144375 -1.3063625446 -1.4713315196
H -1.3165232906 0.5578772654 0.8294541033
