10
0 1
O -2.2958830635 -0.1504954129 0.1716034188
C -1.1221145635 -0.1397309713 0.0465664487
C -0.1473680930 -1.1464173850 -0.5695096429
C 1.1194731051 -0.4537340076 -0.3515503061
C 1.8274359017 0.4761632497 0.0445183344
C -0.2358690960 1.0249442618 0.5382925257
N 0.1299742157 2.0464338072 1.0142259180
H -0.4099777214 -1.3065284670 -1.6183334504
H -0.2436697745 -2.1044267656 -0.0525988716
H 1.2806170894 1.7753076907 0.7568316255
