13
0 1
C 3.1907106018 -0.2754102816 0.6509189207
C 2.0219527581 -0.0528886315 0.4739551639
C 0.6596767986 0.0981622372 0.2787193757
C -0.2609716217 0.9401345491 0.0844783319
C -1.5992904999 1.2252154657 -0.1178099208
O -1.9552034681 -1.0150193580 0.0295935034
C -0.8515419696 -1.5445952666 0.2184383571
H 4.2275966362 -0.4563775967 0.8075641058
H -0.3977255519 2.1526248817 -0.0375976819
H -2.2156484925 1.5324548972 0.7191051563
H -1.9701700072 1.3755231518 -1.1251121831
H -0.3018994860 -2.0108628018 -0.6122538069
H -0.5407086978 -1.8546802464 1.2267866779
