13
0 1
N 1.7045474738 -1.1477619447 -1.2466510842
C 1.1589150961 -0.2889350507 -0.5306855959
O 1.5455674030 0.9801412763 -0.1767025146
C 0.3631079434 1.2325581324 0.6205859625
C -0.1470790825 -0.1840159641 0.2615635454
C -1.4854286924 -0.4366093816 -0.4886990817
N -0.8086782206 -1.0887549639 0.9899533504
H 2.5999601290 -0.8366133745 -1.6148002611
H 0.6141506848 1.3653862801 1.6725544543
H -0.1959627971 2.0862608718 0.2372371775
H -1.2836712522 -0.9256828771 -1.4362222291
H -2.0745136118 0.4752010278 -0.4952543833
H -2.0734810738 -1.1771560319 0.1386816599
