15
0 1
O 0.7050744927 -0.8614389087 2.2267187365
C 0.4818274890 -0.9213165170 1.0566608835
C -0.4842863354 -1.2394015752 0.0051039258
C -1.7940637349 -0.4986487374 -0.0902284626
C 1.1288567891 1.9058376059 0.1450022334
C 0.9728107372 0.8945378564 -0.6965679581
C 0.9034133480 -0.5319593938 -0.2939983312
H -0.5019181248 -2.2724162508 -0.3299746190
H -2.1645877023 -0.4907352440 -1.1169141379
H -1.6859054710 0.5354718258 0.2390736926
H -2.5452777033 -0.9746576618 0.5414335882
H 1.1551003085 2.9289623172 -0.2094916867
H 1.2444393925 1.7434083827 1.2109952749
H 0.8761281604 1.0910643200 -1.7616092569
H 1.6013473544 -1.1937450194 -0.7990328824
