13
0 1
C -2.0403951407 0.0048946776 -0.4373251842
O -0.6650706529 -0.3243792014 -0.4970936599
C 0.0331205552 -0.0184088137 0.9207353752
C 0.4496805508 0.9517837930 -0.1002232464
N 1.7105935878 0.7621585472 -0.5952757540
C 2.1096942176 -0.3135893954 0.0404888730
N 1.2060294040 -0.8366080682 0.8737187162
H -2.1995932607 1.0610746386 -0.2045800573
H -2.5191166809 -0.5944203591 0.3387060381
H -2.4607243509 -0.2138812289 -1.4202380130
H -0.1081493736 1.8365172244 -0.3761893385
H 3.1013934999 -0.7366258588 -0.0765671303
H 1.3860406446 -1.5832429553 1.5190673813
