18
0 1
C -2.5237408618 -0.2265607559 -1.1077286615
C -1.5229308384 -0.0610468457 0.0277703544
C -0.0932784171 -0.3644028294 -0.4059531884
C 0.9225963529 -0.1987030373 0.7072050829
C 2.4557538513 -0.1860945497 0.3088071770
C 1.3947378944 1.1030145399 1.0241844490
N 1.7671596677 2.2292259668 1.2779606502
H -3.5409889743 -0.0149556219 -0.7751448393
H -2.2968204897 0.4525575544 -1.9329145845
H -2.5077178900 -1.2449882761 -1.5034118265
H -1.5713893716 0.9604826865 0.4179292806
H -1.7959650852 -0.7196932293 0.8587052657
H -0.0185055700 -1.3931960929 -0.7728062919
H 0.1873135239 0.2856432128 -1.2406174974
H 0.7151879162 -0.8163465324 1.5803454294
H 2.5910552988 -0.2849018208 -0.7641160932
H 2.6568663516 1.4146404138 0.7683091303
H 3.0553786415 -0.8563867830 0.9148181631
