13
0 1
C 0.6649877120 -0.7613425828 0.5503800634
C -0.6713259100 -1.0669584741 -0.1540123063
O -1.0215636899 0.1635457043 -0.9207572557
C -0.9812228713 1.4021721264 0.0082030210
N 0.2641924751 1.6578231816 0.2924531065
C 1.1423994875 0.6335708162 0.1337748815
H 0.4920360480 -0.7683812173 1.6414000296
H 1.4154779107 -1.5303833739 0.3246125767
H -0.6115577369 -1.8495912622 -0.9213843011
H -1.5153033892 -1.2434777696 0.5156457118
H -1.6679038017 2.1258968435 -0.4254326024
H 2.1840935280 0.8621847663 0.3638350457
H -0.0273767623 0.3112092416 -1.3286799708
