9
0 1
N -1.1543246625 -1.0450174856 0.2856430364
C -0.7202837846 1.3900187510 -0.0412554046
C 0.5092943191 1.4062448348 -0.1233179660
C 1.1855683225 -0.8518382343 -0.0216079101
N 0.0600154041 -1.3174417982 0.1171241242
H -1.7316928830 -1.5889657739 -0.3750387493
H -1.7810449634 1.4874340014 0.0450144502
H 1.5063277532 1.7852136957 -0.2273077830
H 2.1232144944 -1.2667039910 0.3395872023
