18
0 1
C -1.7367852055 0.6798582248 0.7135894642
C -1.0668662030 1.5571706362 -0.3051001365
C -0.1857205382 2.5310194633 -0.0303434695
C 0.9667130141 -1.2692688893 -0.7341561245
C 1.6825125073 -0.9025103750 0.5343860973
C 0.3287789113 -2.4288106586 -0.9557024767
H -1.4310854524 0.9431780452 1.7354958554
H -1.4845368895 -0.3765899987 0.5340662198
H -2.8331512706 0.7647435208 0.6488492814
H -1.3261782648 1.3584041837 -1.3497725692
H 0.1030816401 2.7633832441 0.9971228016
H 0.2729817837 3.1298010802 -0.8179986153
H 0.9706558399 -0.5066528535 -1.5183775267
H 2.7481652875 -0.7007726079 0.3409899649
H 1.2586173057 0.0191470692 0.9613178703
H 1.6137069941 -1.7035884133 1.2830418313
H -0.1784623495 -2.6339864902 -1.8992169265
H 0.2958168899 -3.2147501808 -0.1978845411
