16
0 1
C -2.7525626330 0.3189589441 0.1215227820
N -1.6240771458 -0.5807967710 0.2393237064
C -0.3677401774 -0.0085019285 0.9309923566
C 0.7869354031 -0.2264987358 0.1174397773
O 0.7955142478 -0.9344178836 -0.8801131836
O 1.8884910474 0.3963358325 0.5758755367
C 3.0824955466 0.1416839426 -0.1523222293
H -3.0629052171 0.6418508158 1.1155830038
H -3.5898600112 -0.1948840264 -0.3498081886
H -2.4818502897 1.2038260565 -0.4631971554
H -1.2884201787 -1.0136932842 -0.6185654831
H -1.1731489579 -1.0329525915 1.2247411063
H -0.5375972086 0.9289338594 1.4384677257
H 3.8658143368 0.6949092798 0.3609079516
H 2.9920689132 0.4854394524 -1.1835076168
H 3.3153773246 -0.9238449622 -0.1575770893
