14
0 1
C -1.6120786622 0.9909877463 -0.9029736599
C -1.0133308664 -0.2045395103 -0.1476382511
C 0.3300580007 0.1421171416 0.4909398521
O 1.8129215906 -1.9294841074 1.2476944109
C 1.4456213447 -0.8211669920 0.5763163959
C 1.6360248367 0.1038328781 -0.3270313603
H -1.7547259406 1.8494518274 -0.2294668643
H -2.5878111955 0.7433946446 -1.3451782568
H -0.9405258178 1.3111285305 -1.7132590643
H -0.8740322648 -1.0524551529 -0.8365044013
H -1.7153862618 -0.5386912521 0.6347360941
H 0.2398901991 0.9104422972 1.2775522986
H 2.6819229021 -2.2166837738 0.8986786904
H 2.2065571353 0.5844207229 -1.1111428840
