20
0 1
C -1.3393459537 1.7628085782 0.5854425018
C -0.6439066650 0.4305464441 0.6411124476
N -0.7685331929 -0.4718682357 -0.4854859322
C -1.1111447816 -1.8547505404 -0.2355542217
C 0.5554847867 0.0438860827 -0.1560350760
C 1.5888393461 -0.8557691860 0.4856483606
C 1.1411126404 0.9770035029 -1.1893291611
H -2.3958230322 1.6495274388 0.8389511487
H -0.8957317970 2.4633239254 1.2967983976
H -1.2837531170 2.1999620393 -0.4103810962
H -0.6874928695 -0.0468122893 1.6218298877
H -0.6968608296 -2.4837831716 -1.0259831511
H -0.7635602139 -2.2423648300 0.7312051504
H -2.1976169491 -1.9556219872 -0.2649645780
H 2.4047570102 -0.2520326036 0.8883239225
H 1.1842012721 -1.4478563790 1.3054956191
H 2.0186153490 -1.5400849173 -0.2512896640
H 0.3611166435 1.5262777008 -1.7128569597
H 1.7014364595 0.4061919859 -1.9344600287
H 1.8282058942 1.6914164422 -0.7284675670
