11
0 1
O -0.6873354873 2.2153460682 1.1303178877
C -0.1788107542 1.4620766253 0.4584790321
C -1.3327770187 -0.4608301874 -0.5841558122
C -0.3355006728 -1.0883008987 0.0809615686
C 1.0171456454 -0.6450370290 0.0727374636
C 1.3297365500 0.6866389720 -0.0202640250
O 2.1930324993 1.4806121080 -0.2124407322
H -2.3695286542 -0.7205047837 -0.4077473087
H -1.1334446847 0.2106392837 -1.4086849745
H -0.5822491257 -1.9316797568 0.7209048284
H 1.8403927030 -1.3100314015 0.2981830720
