14
0 1
C 2.4148058400 -0.0029657345 0.0115134177
C 0.9403162857 0.1289499683 -0.0347939646
C -0.0649160041 -0.7434137936 0.0520805289
C -1.2871399173 0.0672094070 -0.0323209505
N -2.5465782332 -0.4443869272 -0.3974157257
C -0.9006887873 1.4485036152 -0.2670581892
O 0.4540838183 1.4106960979 -0.1813278655
H 2.8587661678 0.4167433584 -0.8926655868
H 2.6992373497 -1.0505979605 0.0925524592
H 2.8220484110 0.5399624280 0.8661636446
H 0.0048137311 -1.8125277059 0.1681975297
H -2.9393807878 -1.0857855822 0.2740438889
H -3.1984587457 0.2982330828 -0.6061974533
H -1.3226701284 0.7124467465 0.9845412667
