11
0 1
C -0.9892277503 1.4050467186 0.0429618671
N 0.2192752377 0.6869077556 -0.0546372104
C 0.0920495944 -0.6496180748 -0.1002681663
O -1.1452664357 -1.0739018347 -0.0897060575
C 1.2730348907 -1.5058470548 0.0230173513
O 2.4181468518 -1.0672942627 -0.0952671816
H -1.6193580599 -0.1025489664 0.2766622313
H -0.8782409156 2.3773135396 0.5201605433
H -1.5615032968 1.4220883259 -0.8918843464
H 1.1500069180 1.0557750480 0.1451153545
H 1.0433679658 -2.5726951942 0.2256376146
