20
0 1
C -0.7185628014 2.0175289397 1.1572357713
C -1.4422576614 0.7095344946 0.9794826295
N -1.1353066064 -0.3664641875 0.4005786358
C -0.0041809287 -2.0392730334 -0.8713641238
C 0.1286950129 -0.6218343370 -0.3064719060
C 1.3175271848 -0.5957424193 0.6595529440
C 0.3268442973 0.3454169618 -1.4785063354
H -1.2873800947 2.8076668432 0.6595186338
H -0.6980510374 2.2679694270 2.2207218883
H 0.2973231832 2.0324540546 0.7770800769
H -2.4316238672 0.7090645280 1.4489790972
H 0.8961926063 -2.3338329587 -1.4158602181
H -0.1747189497 -2.7522673963 -0.0633854814
H -0.8576645468 -2.0957399810 -1.5488487659
H 1.5172108855 0.3993465288 1.0561882525
H 1.1278879483 -1.2636892974 1.5019113021
H 2.2207044559 -0.9406735788 0.1517100780
H -0.5598303826 0.3463609317 -2.1156396083
H 1.1776540225 0.0281682941 -2.0853502605
H 0.5126512797 1.3698181857 -1.1580726100
