15
0 1
C -0.2089662847 1.4167178104 0.0823109468
C -0.4720863374 0.0666778388 -0.2870304594
C -1.2456799280 -0.8088161457 0.6747821175
N 0.3501900501 -0.5833898734 -1.2450117445
C 1.4569918284 -0.9869952646 -0.4027408503
C 1.9724472529 0.0538760638 0.3239501315
N 2.1232118706 1.1220037291 0.7943239977
H -0.7464645458 1.8609816178 0.9116002858
H -1.2429508149 0.8695309549 -0.8117227972
H 0.3437364915 2.0603770927 -0.5868488268
H -1.3775228701 -1.7957663883 0.2365583711
H -0.7144852539 -0.9046196178 1.6207823915
H -2.2285844609 -0.3809308051 0.8809664906
H 0.6083405683 0.0185387576 -2.0183907705
H 1.6184504342 -2.0313757701 -0.1981912839
