16
0 1
C -1.2310325029 -0.1535331702 -1.0031022996
C -1.5680102928 0.7151568238 0.0293788809
C 0.0454456470 0.9633105560 1.1867043601
O 1.1139835971 0.7828480161 0.5351646604
C 1.0986609317 -0.9870765909 -0.2715807187
O 0.7747094138 -1.8383368924 0.5081776631
N 2.2213890842 -0.9665134089 -1.0498249257
H -1.4706811281 -1.2080014571 -0.9229533845
H -1.1049513103 0.2253242148 -2.0127417538
H 0.1945245621 -0.3690382416 -0.8286484083
H -1.7407105250 1.7503804011 -0.2359317158
H -2.1936314345 0.3309208407 0.8255069308
H -0.2489314989 1.9958367052 1.3863127332
H -0.2151470140 0.2351546950 1.9644724555
H 2.9783694171 -1.5288172429 -0.6932781694
H 2.4906900536 -0.0555272486 -1.3813053082
