14
0 1
C -1.9325174031 0.0110888360 0.0980110853
C -0.4800982590 -0.2780435855 0.0247397534
N 0.1769343608 -1.2773948738 0.8936051469
C 0.6870323599 0.0078452059 0.9635534102
C 1.5977073065 0.0648948080 -0.2323559765
C 0.4516974322 -0.1842995544 -1.1588881992
O 0.2999352157 -0.0225202816 -2.3397553125
H -2.1308242551 1.0088306608 -0.2949609849
H -2.2809858377 -0.0487327636 1.1277173727
H -2.4898980708 -0.7056621465 -0.5082610568
H 0.7553459772 -2.0046096232 0.4701400542
H 1.1616343992 1.5671092225 1.0354580888
H 2.6714089880 0.1626030352 -0.3375536084
H 1.5187787863 1.7744230601 0.2806352266
