16
0 1
C -2.5013863800 0.0829386507 -0.2913831062
C -1.0484765280 0.5404871724 -0.2938868213
C -0.2125021234 -0.2813464544 0.6649608740
O 1.1380006377 0.2152420196 0.7482879967
C 1.9926270358 -0.2123616961 -0.1472821320
O 1.7327183721 -1.0795282014 -1.0613660580
N 3.2384196646 0.1450655291 -0.2724062268
H -2.9466142568 0.1736806405 0.7025366463
H -3.0996767935 0.6841808958 -0.9763524109
H -2.5900124089 -0.9603923335 -0.6022655861
H -0.6259612238 0.4495795149 -1.2973471122
H -0.9821226408 1.5932323355 -0.0068363984
H -0.5929854495 -0.2053477724 1.6839794763
H -0.1858498658 -1.3314404002 0.3701853079
H 3.7038291167 0.8033211876 0.3293197336
H 2.9668758437 -0.7579450880 -1.2118221830
