13
0 1
O 1.6019718901 1.7028081289 -1.1492452247
C 1.6717574554 0.8192130464 -0.3429324764
C 0.7705961752 -0.3979850435 -0.3628922598
O 0.7147243630 -0.9978451882 0.9328204967
C -1.1902455291 -0.9986985640 0.5243783239
C -1.4252520387 0.4455556131 0.5610931724
C -0.6905477810 -0.1443646017 -0.6106865256
H 2.4164489459 0.8275053317 0.4796695173
H 1.1833888133 -1.0986497120 -1.1026784959
H -0.2847601062 -1.7227317071 0.9507730135
H -2.4462313279 0.7166351890 0.3092601826
H -0.9714859224 1.0490308069 1.3370796596
H -1.1391479377 -0.1163252997 -1.5934003836
