14
0 1
N -2.1798329052 -0.8207198356 -0.0124539614
C -0.8394470397 -0.2208772213 0.1244768786
C 0.2439367573 -1.0052363471 0.2422025369
C 1.2866874702 0.0079518910 0.1199370442
N 2.6467124770 -0.3023141678 0.2509190530
C 0.7529230906 1.2393171673 -0.1244818460
N -0.6491320924 1.1184883005 -0.2106544999
H -2.5797402650 -0.6983647357 -0.9434949580
H -2.8633489908 -0.5212127824 0.6821925857
H -1.9546771459 -1.8113606282 0.1336527018
H 3.2601107640 0.2525672921 -0.3239022458
H 2.8002130948 -1.2871378793 0.1013215959
H 1.2166811412 2.2059379695 -0.2583635428
H -1.1963193562 1.8456949772 0.2288406579
