15
0 1
C -0.5068256139 1.3683022966 -0.4693282565
C -0.0050161837 -0.0223209090 -0.0966462390
C -0.9521469900 -0.7969363976 0.7988632213
N 0.3752397828 -0.7725977859 -1.2994592859
C 1.6132635974 -0.9950301627 -0.6593248721
C 1.3437699230 0.2807499852 0.6922575960
N 1.9068692650 0.7445347793 1.5918368192
H -0.7416492471 1.9303620374 0.4337427512
H -1.4073979180 1.2565528577 -1.0767653892
H 0.2421973325 1.9219091796 -1.0351624846
H -1.9305970033 -0.8294165350 0.3176728448
H -0.6071619730 -1.8188379886 0.9458323215
H -1.0423563511 -0.3127902341 1.7711615015
H 0.5111345144 -0.1074172859 -2.0534466407
H 1.4445038648 -1.8289028372 0.0447181124
