13
0 1
N 1.8484243306 -0.7269818419 1.5759238496
C 1.2451916579 -0.2624169425 0.6377698534
C 1.0758626200 0.3747436482 -0.6747244718
C -0.1416832045 -0.3465274955 -1.1234774924
C -0.6707204512 -0.6689741130 0.2747909004
C -1.0564701219 0.8043338058 0.3523218992
N -0.2014150334 1.0994394743 -0.8407446401
H 1.9120806071 0.7342541036 -1.2595171092
H -0.2950239243 -0.7906649980 -2.0974114068
H -1.3583635852 -1.4746639461 0.5212324411
H 0.5986760296 -1.0958940832 1.3353216731
H -2.0852325640 1.0209059818 0.0610626153
H -0.8083493608 1.3718034064 1.2545888884
