15
0 1
C 2.2306598358 -0.6149022460 -0.0794603121
N 0.9296888137 -0.0775730060 0.2596883075
C 0.5977959254 1.3284615714 0.0585881911
C -0.6685469070 1.3419229512 0.6699910311
C -1.0868628958 0.0253012512 0.8462715232
C -1.9844951339 -0.4507670177 -0.1478601985
N 0.0323408681 -0.8197888443 0.7395710172
H 2.5225036656 -0.1942627827 -1.0388235642
H 2.1669400266 -1.6995579597 -0.1181987479
H 2.9509735105 -0.2991166716 0.6742831998
H -0.3139206383 0.6658248292 -1.1500330262
H -1.3438424564 2.1831972934 0.6059109164
H -1.0668537512 -0.0539585494 -1.2072392154
H -2.8088929850 0.1844735010 -0.4550852834
H -2.1514138780 -1.5163973202 -0.2624498385
