14
0 1
C 2.6195176456 0.1799819880 0.0977697195
N 1.2329571128 -0.0961804690 0.4009194704
C 0.2664457342 0.1220713937 -0.5363601534
O 0.4869305194 0.4531366212 -1.6719382327
N -1.0287190684 -0.1222500607 -0.0369138506
C -2.1571360175 0.2056614607 -0.6951658829
N -3.2584678381 -0.2685723431 -0.0643738379
H 2.8063241908 -0.0785698369 -0.9420429360
H 3.2576201616 -0.4300578391 0.7363310816
H 2.8722134640 1.2346277974 0.2378191809
H 0.9635091363 -0.1379560409 1.3673120264
H -1.1304666698 -0.5565251251 0.8757164445
H -2.8986491151 -0.6446561646 -1.2624437581
H -4.0768022559 0.1218026185 -0.5300892715
