13
0 1
N -1.8231938669 0.9351558516 -0.1596577495
C -2.0393658974 -0.2926447324 0.3555987680
O -0.9984703047 -1.1075767347 0.3193649053
C 0.1683384317 -0.7808598561 -0.4534767710
C 1.1460932746 0.0409457783 0.3829316084
C 2.4180595471 0.2062805478 -0.3130049103
N 3.4094803384 0.3201730446 -0.8779440258
H -2.7269223643 1.4044096005 -0.2117978896
H -2.1046035021 0.7354373349 1.0962004524
H -0.1110341313 -0.2406273575 -1.3572185246
H 0.6042374561 -1.7411632230 -0.7218709904
H 0.7288027541 1.0274965995 0.5882076263
H 1.3294532648 -0.4588048534 1.3360465009
