17
0 1
O 1.4920783770 -0.1615505155 1.1864603532
C 1.3356072084 -0.4904592959 -0.1467045800
C 0.1522457196 -1.3914818353 -0.4748103771
C -1.1867910704 -0.7611672806 -0.0728390644
C -1.1540210476 0.7300875097 0.0415633680
C -0.1300459748 1.5009278594 -0.4869003978
C 1.1139221324 0.9214071582 -0.5476597022
H 0.2490107389 0.4352250796 1.6859164911
H 2.2547858668 -0.9134007015 -0.5707585766
H 0.2838871698 -2.3477966464 0.0341541999
H 0.1666065196 -1.5948162456 -1.5499560990
H -1.5630791385 -1.1799447302 0.8605572219
H -1.9556724848 -0.9858817348 -0.8224214694
H -2.0944883839 1.2087165228 0.2966083159
H -0.5450029620 0.7664696821 1.7766764291
H -0.2432565047 2.5759345764 -0.5468557795
H 1.9925388342 1.5328085978 -0.7151123330
