14
0 1
O 1.1452637978 -0.1514941023 -1.8694745804
C 0.7617546128 0.0533015389 0.8165183169
C 0.1891514041 1.2023646942 0.1138515432
N -0.5269206059 0.6072099493 -0.9603351414
C -1.0224340674 -0.6792254987 -0.5494747292
C 0.0204454868 -1.1278729745 0.4857640135
O 0.1262592833 -2.2644077895 0.9087565933
H 1.7393706991 -0.6003244486 -1.2596000320
H 1.4955295335 0.1179001961 1.6052095065
H -0.5581349246 1.6919037785 0.7718759042
H 0.8825390626 1.9663978748 -0.2334285535
H -1.0091329858 1.1693155684 -1.6434438579
H -1.1272749133 -1.3637449966 -1.3863647924
H -1.9900313830 -0.5683547901 -0.0378771910
