11
0 1
O -0.4904388733 2.2916321306 -0.4685588078
C -0.2864794468 1.1520020306 -0.1743897360
C -1.2239893048 -0.0356645290 -0.2118402147
C -0.4506937399 -1.2971170584 0.1228838059
C 0.8706704706 -0.8908912587 0.3816565389
C 1.0808575843 0.5998614405 0.3111773561
O 2.0580797631 1.2309324579 0.5770365581
H -1.9842960786 0.0720870177 0.5696080773
H -1.7821004324 -0.0970357679 -1.1472104783
H 0.6027297699 -1.4569166082 -0.7015113731
H 1.6481732878 -1.5601868551 0.7403162738
