16
0 1
C 1.7141480927 0.8277646629 -0.1171497065
C 1.1162146239 -0.3023418456 0.6401167637
C -0.2315884037 -0.1048200486 1.2716909673
C -1.0592242602 -1.2398755585 -0.2742896880
C -0.5125095483 0.0478390022 -0.8928683112
C -0.9183578148 0.8916915736 0.3057469987
N 0.9514703258 -0.1715113590 -0.8354647750
H 2.7766384439 0.7782005367 -0.3225500577
H 1.3362131605 1.8334635475 0.0090711493
H 1.7543450527 -1.1044759464 0.9887366507
H -0.8943262372 -1.1635011581 1.0409122567
H -0.5611335935 -2.1654767175 -0.5589600022
H -2.1462430969 -1.3182030387 -0.2668631950
H -0.8319904776 0.2831135321 -1.9117937867
H -0.5472957890 1.9113605112 0.3789340852
H -1.9967334783 0.9180873064 0.4526186507
