15
0 1
C 0.7587782600 1.0943846018 0.1695907478
C 1.4579482781 -0.2173335491 0.2529894655
C 0.6337487797 -1.2457334191 -0.1939123021
O -0.6501578935 -1.1024477931 1.1647799115
C -1.3991914813 -0.0887193288 0.6885863392
C -0.5385413068 0.6377888581 -0.5112146871
C -0.0673331347 -0.5431584389 -1.2067434743
H 0.6547586338 1.5528789128 1.1596294402
H 1.2754170430 1.8077898918 -0.4748202664
H 2.4299120694 -0.3563794028 0.7141372272
H 0.9261904971 -2.2841008541 -0.2374726630
H -1.6012555173 0.6828126394 1.4461996567
H -2.3532871476 -0.3866560493 0.2300011710
H -1.0947749314 1.3940619403 -1.0583074013
H -0.4236371485 -0.9581990090 -2.1396701652
