17
0 1
C 2.1449606826 1.1737082074 -0.3635769544
O 0.8893800318 0.8519284792 0.1825260324
C 0.1267042007 -0.7480017677 -0.4654139375
C 0.3231800231 -1.4148029973 0.7693309526
O -1.0745674766 -1.3848681210 1.1238777482
C -1.3414419818 -0.7367191870 -0.1352438988
C -2.1274516505 0.5408307591 -0.0303475657
H 2.7798537323 0.2818518983 -0.4768827042
H 2.0214426675 1.6406689804 -1.3440585459
H 2.6650734047 1.8806088707 0.2867480394
H 0.6175598458 -0.7569614843 -1.4290851741
H 0.8836550062 -0.1045950507 0.9533088498
H 0.8992663497 -2.3036910599 0.9945453389
H -1.8324581828 -1.4562026184 -0.8048032919
H -2.2619003452 0.9826773626 -1.0196367793
H -3.1106075538 0.3306945699 0.3933057764
H -1.6046807537 1.2536331587 0.6044541142
