17
0 1
C -1.1441951299 -1.3483283907 0.3928797102
C -0.5412896853 -0.1297349417 -0.2558313504
C 0.8393470089 -0.2908052708 -0.8111494407
C 2.0255992420 0.2148652863 0.9790950261
O 2.0522354810 1.5435465140 0.8521130086
C -1.4334136575 0.9015904374 -0.7962300143
O -0.7785770124 1.0985464896 0.4500455404
H -1.3025348944 -2.1329010962 -0.3496608865
H -0.4817767135 -1.7432388711 1.1656194625
H -2.1013562066 -1.1030048539 0.8519929879
H 1.1408709525 0.5370991003 -1.4509229570
H 0.9433600173 -1.2435527479 -1.3347869611
H 1.9650370900 -0.4239795462 -0.0790645996
H 1.2022931317 -0.1277647209 1.6186844714
H 1.1928361751 1.9291699785 1.0709646606
H -2.5104028593 0.7700895585 -0.7309287296
H -1.0891119396 1.5399790746 -1.6049429284
