12
0 1
N 2.9244574864 -0.9211814130 0.0407206874
C 1.7560423316 -0.5437016079 0.0040584975
C 0.4369454064 -0.2148579164 0.2443102040
C -0.7967948392 -0.9320569856 -0.2685324114
N -1.8416148165 0.0958384309 -0.2971088315
C -1.3331193638 1.1497276266 0.1920008185
N 0.0069564917 1.0838169449 0.5246106432
H 2.0576514884 -0.3707080226 -1.0835762364
H -0.6643809055 -1.3755361042 -1.2572668719
H -1.1098709450 -1.7417328702 0.4021423733
H -1.8772316099 2.0754001056 0.3403276706
H 0.4504022754 1.6883498119 1.1931044568
