12
0 1
N 2.0202506036 -0.0528904184 0.0924058738
C 0.7396046486 -0.1644211601 -0.1402233955
C 0.1210606578 1.1194447136 0.0376977080
N -1.2537311823 0.7334213639 0.2883924516
C -1.4637199372 -0.5902397221 0.0803834189
O -2.4635033323 -1.2499608723 0.1979024226
N -0.1816247492 -1.1335792259 -0.2849062554
H 2.7089761420 -0.7108647765 -0.2504649490
H 1.5714994552 1.1268217954 0.4945874090
H 0.2236547135 1.7337883360 -0.8605293334
H -2.0143669061 1.3338745728 0.5432836299
H -0.0315631138 -2.1253406064 -0.2108569804
