12
0 1
O 1.1824512894 0.7118683466 -1.4195315647
C 1.1084220259 -0.2904459832 -0.6935402135
C 0.5369391278 0.1494370126 0.6265009794
C -0.1210469865 1.3483336681 0.0732981259
N -0.6289753821 -0.4323505766 1.2164309104
C -1.2154965148 -1.1773173527 0.2777997315
O -0.7537395906 -1.3625443819 -0.8668285550
H 1.6234320769 -1.2169026311 -0.9451254848
H 1.3194524907 0.3571395524 1.3574115818
H -0.9144483667 1.1685683592 -0.6357922452
H -0.0632863487 2.3336203669 0.5286881119
H -2.1524548213 -1.6656753802 0.5690706223
