10
0 1
N 1.8445093170 0.1032229493 -0.3343276500
C 0.5057254306 -0.0270634399 -0.0484663603
N -0.1803536954 -1.1566125496 -0.1410372993
N -1.4752995255 -0.7299081317 0.0769933376
C -1.6051333796 0.5650912009 0.4480239386
N -0.2764671516 1.0579853997 0.3686430839
H 2.3069200355 0.8258951804 0.2086422971
H 2.3463694331 -0.7802455032 -0.3459470830
H -2.2149298233 -1.4235554608 0.0369110381
H -1.2047806408 1.5943593548 -0.2700223025
