14
0 1
C -2.1582219596 0.6901883302 0.1254192656
C -1.0569852885 -0.3197455994 0.0376115340
C 0.4873987212 0.5794698327 -0.8483669973
C 1.6589455752 -0.1336809386 -1.1689986639
N 2.2236308355 -0.4812473588 -0.0092042205
N 1.5204973807 -0.1442925786 1.0473213764
N 0.4760257855 0.5202017219 0.5477780406
H -3.1034813723 0.1564259264 0.2677281693
H -2.0075483411 1.3554215233 0.9733863188
H -2.2153763540 1.2828887168 -0.7840828200
H -0.9941571692 -0.9685983814 0.9088039145
H -1.0963786952 -0.9320483720 -0.8589337324
H 2.1237980469 -0.3652399732 -2.1131811323
H 3.1238478352 -0.9109448494 0.1431849470
