12
0 1
O -0.7093412623 -1.7628394664 -1.2837944054
C -0.9392486148 -0.7038568526 -0.7365545643
C -1.4902930728 -0.0903502138 0.4980634340
C -0.4966899997 0.6808461330 -0.4812124738
O 0.7958463001 1.1018720617 -0.1849732677
C 1.6971987976 0.0692607109 0.2201800340
H 1.8217503496 -0.6925176027 -0.5643689580
H -2.4846100899 0.3578437056 0.5509427323
H -1.1533206387 -0.5370568229 1.4378292658
H -1.0253039130 1.4788877265 -1.0076572710
H 1.3629003491 -0.4222391989 1.1491636416
H 2.6555577948 0.5650028196 0.4076808324
