10
0 1
C -0.7568553825 -1.2497871386 -0.0741218324
C -0.5123445758 0.9501636964 0.2749087647
N 0.7954132728 0.8475604109 0.0515303418
C 1.7388129753 0.2058324563 -0.2103542335
O 0.3678941185 -1.6940634857 -0.3308121073
H -1.1937873232 -1.3693488873 0.9296003297
H -1.4809522178 -1.0505194054 -0.8794292600
H -1.0660297318 1.4759509620 -0.4937828924
H -0.7834856881 1.1595555406 1.3028434459
H 2.7989415525 0.2249878508 -0.3737545565
