16
0 1
C -1.6254047128 -1.1078703882 0.0600068305
C -0.5911597870 -0.2422013863 -0.6259565591
C -0.7346837287 1.3110700637 -0.5390858898
C 0.6669829452 1.3511243216 0.0149233339
C 0.7624380844 -0.0508823690 0.0516614082
N 1.7221264572 -0.9956529374 0.3288476519
O 2.8891770585 -0.2861697552 0.6006811355
H -2.5802513773 -1.0639236861 -0.4673867754
H -1.7956616292 -0.7735909551 1.0875935186
H -1.3047363601 -2.1506542536 0.0940060314
H -0.4382352473 -0.5611404909 -1.6584369964
H -0.8564313468 1.7891034836 -1.5158145909
H -1.5368509646 1.6643257795 0.1165132426
H 0.6282535765 -0.1324255363 1.1993886647
H 1.3570099826 2.1400898705 0.2697354950
H 3.4539140493 -0.9400027607 1.0200444991
