11
0 1
N 1.7267246093 -0.4402131475 -0.5022164760
C 0.6069538587 0.3124867724 -0.4485247022
C 0.0857278468 1.1837744961 0.5095229481
N -1.2559522201 0.9913467904 0.5204721770
C -1.6876625602 -0.3872391172 0.3518884448
N -1.1464284232 -1.0866300941 -0.5649674286
N -0.5372091845 0.0559834164 -1.1834121162
H 2.2363714999 -0.6550479660 0.3358976769
H 1.8232178170 -1.0842876190 -1.2669167573
H 0.5562496929 1.8621168883 1.2108605273
H -2.4244409366 -0.7683934199 1.0526127061
