12
0 1
O -2.4263512128 0.9324372687 -0.4114919696
C -1.7014743416 0.0993392240 0.3007620796
C -0.3260941525 0.1873904470 0.3966558917
N 0.3423405480 0.9877015127 -0.4642766289
N 1.4386371338 0.3123024592 -0.6255082289
C 1.5352717265 -0.7078612729 0.2989476011
N 0.4637239630 -0.7644726738 1.0056024935
H -1.8320209349 1.5043272641 -0.9202704406
H 0.3108377871 -1.3434057451 -1.6556288921
H -2.2629216629 -0.6346745488 0.8625295651
H 2.1457683580 0.6236531134 -1.2721887753
H 2.4172647881 -1.3232710484 0.3798053045
