14
0 1
O -1.1751256811 1.8228826600 -1.7258473658
C -0.7789394743 -0.9716903260 0.1594660319
C 0.3825173624 -1.1426785773 1.0860409411
C 0.6189890916 -0.5624511991 -0.2904622802
C 1.0550183147 0.6899066989 0.4656157231
O 0.7036411298 0.0867867279 1.7562799866
H -1.8614070653 1.9066174521 -1.0409786383
H -1.5370231887 -0.2219404874 0.3976489344
H -1.1545284657 -1.8843014494 -0.3054124214
H 0.6930384535 -2.0789117487 1.5490517130
H 1.1140434164 -0.9982529614 -1.1555089408
H -0.8724447573 0.9023395359 -1.6254660651
H 0.4972926835 1.6133585854 0.2582390550
H 2.1380351804 0.8705260889 0.4117733266
