11
0 1
O -2.3013603844 -1.3531457781 0.0715725480
C -1.8293272357 -0.2468608586 0.0095296303
C -0.3859694494 -0.0018170536 -0.0288131135
C 0.3167904172 1.1542949214 -0.1484592021
N 1.6546501433 0.8372496771 -0.2811710385
C 1.7905115830 -0.5388485035 -0.1568337992
N 0.5378672440 -1.0145512613 0.0298356750
H -2.4643020789 0.6567270266 -0.0124243678
H -0.0456256232 2.1689415992 -0.1999442025
H 2.4199467714 0.3287664718 0.5638211178
H 0.2965206125 -1.9838912411 0.1527127526
