10
0 1
N 2.9621099135 -1.1214803357 0.4559441475
C 1.9483996484 -0.7830641277 0.0223157122
C 0.7284331799 -0.3909124507 -0.5639166376
C 0.0929519539 0.8772907909 -0.3073335960
O -0.9674854218 1.1355710706 -1.1615239047
C -1.5085232647 0.2248238322 -0.2446791549
C -0.5236988231 -0.6993166525 0.0993087778
H 0.2937691439 1.6096666776 0.4717909040
H -2.4375324841 0.4502103980 0.2560865691
H -0.6202368460 -1.2964342028 0.9998911826
