16
0 1
C 1.8705979983 -0.1508010311 -0.1083380270
C 0.5279355402 -0.2140903325 0.5850077274
C -0.6966131912 -1.1719623051 -0.7140803929
C -2.0228805921 -0.2727100419 -0.7194073109
C -1.7048505775 0.8688343245 -0.0558311016
C -0.3165067792 1.0426746147 0.6806260366
H 2.6224834770 0.3522662366 0.5203116313
H 1.7976886306 0.4099742731 -1.0520351095
H 2.2472762248 -1.1577371555 -0.3386262964
H 0.5349611587 -0.8252652412 1.4937758606
H -0.1126749443 -0.8034177018 -1.5542673923
H -0.7668210803 -2.2628781595 -0.6883234100
H -1.1860570966 -0.8184937283 0.2599192984
H -2.3507149681 1.7494120280 -0.0691749231
H 0.1962095797 1.8804162059 0.1823927612
H -0.5022283800 1.3414710140 1.7221736482
