19
0 1
C 2.2839192134 0.5611599295 0.7061450381
C 1.0761930170 -0.2928905551 0.3418286673
C 1.2721907376 -0.9539299420 -1.0475640961
C -0.1550822224 0.4776661319 0.1038385343
C -1.3810391458 -0.2101804633 0.4899459673
C -2.6397500890 0.3116896036 -0.2059632578
O -2.6344657510 1.7116657506 -0.2579026494
H 2.1436853940 1.0462494066 1.6733477699
H 3.1884944715 -0.0494737823 0.7629006783
H 2.4338474317 1.3423455336 -0.0410012071
H 0.9494132843 -1.1072254228 1.0730701297
H 2.1845555950 -1.5508115568 -1.0126411917
H 1.3832391468 -0.1986304532 -1.8266431744
H 0.4448670631 -1.6128635481 -1.3146183060
H -2.6900996484 -0.1258080077 -1.2132854317
H -1.3384816655 -1.3081313245 0.5529764997
H -1.3961186973 0.1582759984 1.5396375197
H -3.5369908744 -0.0032484921 0.3313333067
H -1.7086972603 1.9585451937 -0.4063917967
