12
0 1
O -1.8201558277 0.6198376167 0.7071537597
C -0.7563649394 -0.6253575354 -0.5041220583
C 0.2822700615 0.1198216893 -1.2335532602
C 0.6548818448 -0.7195207614 -0.0135988650
C 1.1054334754 0.0350629164 1.1988388248
O 1.8431438569 -0.4170601707 2.0528829025
H -2.1117744229 1.2485804638 0.0118195104
H -1.8768544457 -0.3938638200 0.1159775489
H 0.5376382824 -0.2254953574 -2.2384857287
H 0.3660414268 1.2023057542 -1.0982491387
H 1.1156615630 -1.7028899725 -0.1255425498
H 0.7016601249 1.0718721769 1.2429710543
