14
0 1
O 1.9860006299 1.9723942412 -0.1305873305
C 1.0445853364 1.3642502019 0.4759317821
C 0.0970036305 0.9788848238 -0.4906932240
C -0.1168586336 -0.3905410564 -1.0227479760
C -0.1188818707 -1.4703685742 0.0494859749
C -1.1806809976 -0.6055146022 0.7591029345
N -1.2135144156 0.3768934194 -0.3767752840
H 1.0758540556 1.2873341354 1.5628500239
H 1.2098327071 1.8186481261 -1.0724197053
H -0.0831171387 -0.5668372632 -2.0914099165
H 0.8245422282 -1.6749376785 0.5547936561
H -0.5321965967 -2.4116952775 -0.3111253475
H -0.9154357605 -0.1593234912 1.7193562741
H -2.1489831744 -1.0931910046 0.8567951381
