18
0 1
C -1.2851640925 0.9050737453 -0.7208827889
C -1.6733078553 -0.8652216738 0.2446323339
N -0.2927337014 -0.2262201907 0.1889551350
C 0.1135952278 0.3929249923 1.4391920473
C 0.7129409716 -0.8166165083 -0.6087095472
O 0.4545996693 -1.7643181470 -1.3113596057
C 2.0388046574 -0.1014872242 -0.6528922387
H -2.1516291594 1.3784506088 -0.2812475060
H -1.5267498695 0.4582210668 -1.6757072335
H -0.4763560078 1.6544203587 -0.8316703368
H -1.6576048057 -1.7509930531 -0.3816457028
H -1.8956090681 -1.1002616522 1.2872214089
H 0.4589506113 -0.3733556106 2.1373883914
H 0.8953300732 1.1348954521 1.2838019714
H -0.7594198567 0.8823545948 1.8699926366
H 2.6341176988 -0.5407181161 -1.4488298186
H 2.5821132112 -0.1896848193 0.2891978403
H 1.8947402961 0.9645281765 -0.8537339863
