16
0 1
C 1.2915646521 0.2907897498 -2.0695405492
N 0.8895294023 0.3678616777 -0.6915894184
C 0.2458772482 -1.3195588662 1.2061047622
C 0.0170109279 -0.5503871799 -0.3021379148
C -1.0765863520 -0.1263013600 0.6066200821
O -1.0983471212 -1.0845659731 1.5680345770
C -1.5041715081 1.2396721176 0.9408556722
H 2.3127408857 0.6643792843 -2.1843808078
H 0.6592230385 0.9015258389 -2.7315424384
H 1.2572375519 -0.7391114303 -2.4687822721
H 0.5004201978 -2.3734209734 1.1335399141
H 0.9451032526 -0.7071561761 1.7647113124
H -0.2735624511 -1.3812884264 -0.9706057660
H -2.4657031405 1.1961172334 1.4565197496
H -0.7827584142 1.7176095196 1.6121743501
H -1.5566551698 1.8384169640 0.0326047470
