11
0 1
C -1.3533946299 0.4053867032 -0.0401583409
C -0.4348883992 -0.7719675323 0.1775178825
O -0.8103372102 -1.9043680842 0.4218166783
C 1.0983425976 -0.5267725709 0.0902987460
C 1.7241018619 1.9299864340 -0.5094714975
N 1.4783938291 0.8014519039 -0.2364259683
H -2.3938586939 0.0861843070 0.0710757717
H -1.1935556051 0.8329670244 -1.0409713181
H -1.1230166489 1.2083804592 0.6751860189
H 1.5051337201 -1.2220377929 -0.6575105803
H 1.5328481784 -0.8053498513 1.0612696078
