10
0 1
O 1.3475934779 -1.1326009156 1.4973180029
C 1.2986162094 -0.4582757099 0.5145556414
C 0.0718683195 -0.0055321893 -0.5655295596
C -1.2595003867 -0.4212445770 -0.4437674582
N 0.1556625767 1.3592003603 -0.0276964591
H 1.6033207173 0.7499335098 0.4286752711
H 0.4974597024 -0.0646766351 -1.5713361984
H -1.8284959188 -0.8532211392 -1.2682296140
H -1.7659403385 -0.3375154581 0.5181374942
H -0.2172263591 1.3442827541 0.9385708796
