10
0 1
O 1.9149923695 -0.2252962618 0.8425221449
C 0.8677047786 0.1420327433 0.1874325437
C 0.3254185917 1.4362817480 0.0023540281
N -0.9985795853 1.5493631507 0.1099684961
N -1.6838038500 0.4120512083 0.3813168668
C -1.1313609581 -0.6555335728 -0.1134016182
N 0.1715214387 -0.6938074625 -0.6433949844
H 2.1256758869 -1.1434682451 0.6119726631
H 0.1571336416 0.6551834665 -1.1733984529
H -1.7339323136 -1.5444357746 -0.2457936872
