12
0 1
O 0.5703779083 0.2198652647 1.9318846940
C 1.2963706846 0.4046501707 1.0084017486
C 2.6532261729 1.0338069773 0.7188041978
C 2.8157937012 0.1404194960 -0.3280927730
C 1.4197386447 0.1329415769 -0.4234927200
C -2.9610316500 -0.3795493500 -0.3566713362
N -1.7217416130 -0.1622110852 -0.2889424262
H 3.6333412654 -0.1614318919 -0.9633381096
H 0.7602190007 0.4037681121 -1.2434184713
H -3.5971322856 -0.5918501295 0.5080434912
H -3.4534561550 -0.3598539193 -1.3297362677
H -1.3848986744 -0.2075602219 0.6742099722
