13
0 1
O 0.2100370224 0.1081707348 2.4287637663
C 0.6392920747 -0.9247892446 0.0458820444
C -0.5570716870 -0.8923338245 -0.9103677331
C -1.1873617261 0.4169932240 -1.0341257966
C -1.6917388840 1.4995407422 -1.1238423085
C 0.7405200721 -0.0585146903 1.2235228257
C 1.5409310346 0.2793282441 0.2718192821
H 0.5741447354 0.9052638010 2.8256686624
H 1.0818114178 -1.9235529994 0.0860854028
H -1.3052668319 -1.6176143924 -0.5766953677
H -0.2282501378 -1.2212400822 -1.9007974590
H -2.1474308224 2.4574742527 -1.2069170766
H 2.2832227320 0.9170042345 -0.1696612423
