15
0 1
C 2.1330057460 0.1590542118 -0.1301178425
C 0.6428860744 0.0240736524 -0.1945101551
O -0.0846068117 0.8700622940 -1.0520267620
C -1.2007407200 0.7942136728 -0.1394787290
C -1.8043529431 -0.6085811158 -0.2772684861
C -0.6729124412 -1.2325903754 0.5557961822
C -0.3020748969 0.1871097727 0.9679665598
H 2.3998502974 1.1562873175 0.2207680154
H 2.5355963534 -0.5820699018 0.5608701173
H 2.5740695229 -0.0002139122 -1.1145559269
H -1.7957856089 1.7050313525 -0.1375997893
H -2.6696959796 -0.6942242396 0.3872879198
H -2.0566928952 -0.9953100439 -1.2656203285
H 0.4338688059 -1.1251731030 -0.4718398481
H -0.0032625035 0.5430874181 1.9461300731
