14
0 1
C -0.9508767156 -0.7192230303 1.2401520540
N -0.0798980452 -0.2872374471 -0.7602864761
C -0.6821354671 1.0100050358 -1.0195592203
C 1.3233589891 -0.2710065170 -0.5171022299
O 1.7989936430 -0.0586543431 -1.6771837595
N 1.7168864268 -0.5112870952 0.6998242801
H -1.6722263440 -1.1277856791 0.5285649994
H -0.8451678503 -1.4778178345 2.0383148102
H -1.2822490394 0.2475981218 1.6317062142
H -0.4867688603 1.2438042127 -2.0765483136
H -1.7689397337 0.9101661631 -0.9102902518
H -0.2969744376 1.8278000846 -0.3907084216
H 2.7194873817 -0.6312809684 0.8368308172
H 0.2966570526 -0.6627497034 1.1203224978
