16
0 1
C 1.8447979907 -0.2252783578 -0.0681489470
C 0.3724710260 -0.0190887228 -0.0334362489
C -0.5016929698 0.6516689007 0.9668088373
C -1.2860970504 1.2300461261 -0.2206946802
N -0.4441630142 0.4286603864 -1.1876449898
C -0.6731569193 -0.9499252087 -0.9226928623
C -0.7886185833 -0.7839280950 1.1833361558
H 2.3307149772 0.6866687189 -0.4214437025
H 2.1254570285 -1.0396146946 -0.7381631843
H 2.2159324391 -0.4608686630 0.9293278819
H -0.0496377814 1.2853134876 1.7192132119
H -2.3538369448 1.0146535180 -0.2694036501
H -1.0946036747 2.2856077021 -0.4038539091
H -0.0187304111 -1.6019852976 -1.4955177740
H -1.6778828686 -1.3199473700 -0.8121875726
H 0.0452877561 -1.2237964304 1.7526064340
