18
0 1
C -2.3139154829 0.3661534555 -0.0746185703
C -1.3014315274 -0.7686077033 -0.0540305910
N -0.0295091168 -0.5434974722 0.6200141034
C 0.2794224321 0.6887827899 1.0618170243
C 1.1174382751 0.1386758030 -0.6340879077
O 0.5779350314 0.3400499058 -1.6985749712
C 2.3792931140 -0.6358166972 -0.3559492785
H -3.2298241030 0.0189652639 -0.5549898626
H -1.9500811615 1.2215926209 -0.6473410645
H -2.5801211406 0.7013694734 0.9320359818
H -1.0663306564 -1.0396849135 -1.0906923129
H -1.7421526170 -1.6508750836 0.4157140912
H -0.4185742472 1.5261057822 0.9986989072
H 1.0141345262 0.7620787217 1.8643284400
H 1.2327615124 1.1909550151 0.0805024583
H 2.2377322153 -1.6472892197 -0.7338273801
H 2.6027865052 -0.6810115147 0.7067917120
H 3.2024114411 -0.1630852273 -0.8935387795
