15
0 1
O 2.1191008438 1.0329221627 0.3077291648
C 1.3159730392 -0.8402545014 0.1169417059
C 0.0104132773 -0.4896541781 0.4924081971
C -0.5104701494 0.8459709397 -0.2284675831
C -1.9784715536 0.2982931218 -0.2286587085
C -1.1945130279 -0.9428256901 -0.3901378773
O -1.1869031306 -1.8321962796 -1.2031654544
H 2.5585438613 1.3431415697 -0.4885661114
H 2.0386552651 -1.2349262118 0.8177692497
H 1.5273537370 -0.9841579057 -0.9369582492
H -0.1838249722 -0.4645238189 1.5632124743
H 1.1813593664 1.4058408640 0.2740034588
H -0.1479750360 0.8228466126 -1.2669983131
H -2.6429876490 0.5417693927 -1.0537160503
H -2.4634848714 0.4440299224 0.7363350966
