11
0 1
N -1.7114269136 -0.1577120758 0.3095776427
C -0.3699272593 0.0261737429 0.0322110551
C 0.6959712281 -0.9164203252 -0.0962869653
C 1.9609606683 -0.1408269736 -0.3746282798
N 1.6131554177 1.1649032714 -0.2781262595
N 0.2265942936 1.2212203103 -0.1012455939
H -2.0504445660 -1.0920165331 0.0990268233
H -2.3469610054 0.5568543115 -0.0382969891
H 0.5711721152 -1.9881238556 -0.2380044860
H 1.6445280843 -0.8034047055 0.7412138629
H -0.2336220627 2.1293518327 -0.0554428104
