14
0 1
O 2.1924813074 -0.0094530840 0.1864042471
C 0.8177223139 0.0064528361 0.4032641299
C 0.1215417738 1.1952985761 -0.2414337560
N -1.2554256643 0.7207384411 -0.4394991000
C -1.1733077257 -0.8326259241 -0.6616981790
C 0.1432945218 -1.1984167176 -0.2881648842
O 0.7583571449 -2.2402771950 -0.4372325570
H 2.3998679573 -0.9317125143 -0.0300883302
H 0.5931526366 -0.0361142462 1.4802849801
H 0.1374372834 2.1094262043 0.3503710685
H 0.5865022999 1.3708084383 -1.2175018694
H -1.8192915305 1.1924799490 -1.1290895011
H -1.7389332278 -1.2283572678 -1.4897028533
H -1.7430730905 -0.0842354958 0.2765076045
