19
0 1
C 2.6549990841 0.3960832487 -0.6820883673
O 1.2660175356 0.5445384820 -0.8377876635
C 0.5359183874 -0.5897283394 -0.4277731098
C -0.9260694515 -0.2463091011 -0.4675880940
C -1.8683275667 -1.2631612999 0.1027707562
C -0.9471857125 0.9846687032 1.2038014349
O -1.1970484727 1.5009217744 -0.2426552294
H 3.0320977751 -0.4489693187 -1.2710261200
H 3.1226889960 1.3126309953 -1.0378159347
H 2.9176780496 0.2396347734 0.3704733174
H 0.7042787141 -1.4096064266 -1.1497380168
H 0.8312750141 -0.9080684838 0.5740879150
H -1.2015261753 -0.0925943757 -1.5230882060
H -2.8548962748 -0.8250905990 0.2525180650
H -1.5121007298 -1.6533018307 1.0533751943
H -1.9874921366 -2.0708150984 -0.6323876495
H -1.9372740307 1.0624304843 1.6604170212
H -0.2981651718 1.7253259423 1.6843525737
H -0.3240888341 1.7726714696 -0.5609208865
