17
0 1
C -2.2547205917 -0.3395379764 0.2615690108
C -1.1696736564 0.2647392381 -0.5637959032
O -0.5321280287 1.2204805285 0.1189058347
C 0.7729005353 1.4781362296 -0.3657734221
C 1.5558082176 0.1672568339 -0.2619432220
C 1.1939909076 -0.7331062416 0.8806131956
C 0.7078509129 -1.0200951109 -0.4901641749
H -3.0977355774 0.3566681744 0.2597261167
H -1.9615153446 -0.5026646913 1.3050397974
H -2.5946264882 -1.2757722378 -0.1782683339
H -0.4086902562 -0.4669286236 -1.1430277328
H 0.7316401245 1.8149473088 -1.4054384815
H 1.1855572123 2.2664572121 0.2623351880
H 2.5757982730 0.2097233472 -0.6241472807
H 0.4924272703 -0.3416642806 1.6151385200
H 1.9603068808 -1.3769483355 1.2946133905
H 1.0129576089 -1.8900943751 -1.0570485026
