15
0 1
O 2.4618660917 0.4507176595 1.1211266816
C 1.8373908878 -0.0148512257 -0.0427434033
C 0.3435207404 -0.0222846093 0.0564961398
O -0.3268274942 1.0646481864 0.4513799806
C -1.5049547824 0.1934643519 0.4142972610
C -1.9461346066 0.2844514734 -0.9665658864
C -0.7576088253 -0.6786321125 -0.6174771520
H 1.9849837506 1.2215327191 1.4392620332
H 2.1052562992 0.5995922870 -0.9154431080
H 2.1851467110 -1.0311590773 -0.2287492822
H 0.0259779704 -0.7848614489 1.4971119891
H -0.9270430702 -0.5761236914 1.5256766727
H -1.8075014628 1.1831631389 -1.5593831467
H -2.8050220032 -0.3202259379 -1.2352282123
H -0.8778342065 -1.7435377132 -0.7420125672
