15
0 1
C -1.0671312495 0.8011825421 0.4136129388
O -1.0634245670 1.1483732103 -1.0361140164
C -0.3727348373 0.3109375484 -1.6621037487
C 0.1139941365 -0.8243150237 -0.9147624635
C -0.2504702697 -0.4842028817 0.5348174314
C 1.1140005666 -0.0832844814 1.1907958588
O 1.7398440875 0.7299351046 0.3299728133
H -2.1177513219 0.7556603363 0.6932301388
H -0.5533993146 1.6456148440 0.8727766900
H -0.2320261219 0.5088229271 -2.7222551214
H 1.2203494075 -0.7252443277 -0.9874553314
H -0.2337091620 -1.7674249696 -1.3447644829
H -0.8097965620 -1.2807113834 1.0298795006
H 0.8647242498 0.3655344487 2.1807688673
H 1.6504859582 -1.0315608945 1.4283659251
