16
0 1
C -2.2822547839 -0.7701437603 0.4001100960
C -2.0049626689 -0.2816961483 -0.8161545033
O 0.9459650488 1.5630986605 -1.2255356434
C 1.1852421935 0.7481946015 -0.3456554634
C 1.6843141728 -0.6560209343 -0.6546997323
C 0.9739897576 1.0624674333 1.1286563233
H -2.4255294211 -1.8382054532 0.5729246075
H -1.8544349467 0.7837062548 -0.9903611784
H -2.3894192439 -0.1178767895 1.2685851311
H -1.9020811264 -0.9334399897 -1.6853801764
H 1.8660014486 -0.7661504001 -1.7290686423
H 2.6035389750 -0.8805753449 -0.0931850568
H 0.9234893252 -1.3848770430 -0.3369544788
H 0.2397832656 0.3598107540 1.5502737751
H 0.6124465065 2.0893205506 1.2492895686
H 1.9104384972 0.9298876088 1.6914703734
