11
0 1
C -0.9287391303 -0.0980988403 -0.0542232938
C -0.3760859589 -0.2876513757 -1.4525126333
O 0.7980035579 -0.4692679940 -1.7234949072
C 1.5115010058 0.2825919325 0.7644391994
N 0.9348811064 1.3747079127 1.0443578597
C 0.1051108711 0.0622362110 1.0428454627
H -1.6214007096 0.7627682066 -0.0733101759
H -1.5712099055 -0.9756012585 0.1432829387
H -1.1502989056 -0.2646120955 -2.2592351865
H 2.4969365291 -0.0885604809 0.4919984684
H -0.2013504605 -0.2918922180 2.0313672679
