11
0 1
C -1.5382740399 0.3947389171 -0.7576667428
C -0.3672666771 -0.3947263133 -0.8101029934
O 0.9954766776 0.1527042611 -1.0768899823
C 1.5513736973 0.3635564983 0.1377088637
N 0.9053690938 0.0878754803 1.2099394277
C -0.4105878131 -0.3799396586 0.8439484696
H -1.2436305224 1.4642652655 -0.7007536612
H -1.1928430144 0.2860668778 1.2555155596
H -0.3892352649 -1.4082061080 -1.2170085574
H 2.5547650888 0.7866492593 0.1156680502
H -0.6520002257 -1.3914334795 1.1881265664
