15
0 1
C 0.6605539492 0.9058889958 0.5249024693
C 1.6485145196 0.0902530116 -1.0030437242
C 0.4152833376 -0.9662160034 0.3642594181
O -0.7303817017 -0.9724142886 1.1072971203
C -1.5856138901 -0.0040183804 0.4526350544
C -0.5600124774 0.6841565453 -0.4219770783
C 0.2403279037 -0.4997534539 -1.0281626641
H 0.4793039771 0.9164253157 1.6010276850
H 1.3079360719 1.7337576669 0.2677603429
H 2.3631956415 -0.7171642367 -0.7530060961
H 1.1325971665 -1.7073917061 0.6928531285
H -2.0339532437 0.6342568228 1.2141385892
H -2.3706887926 -0.5286674472 -0.0987824046
H -0.8888664187 1.5075693618 -1.0504297642
H -0.1137480428 -1.1414442036 -1.8374700760
