14
0 1
C 1.2288456322 -0.8105771069 -0.4259744206
C 0.9368082712 0.0729265988 0.7636168875
C 0.6556616482 0.5447733180 -0.6387411846
C -0.8512492967 0.6977459702 -0.4273409276
C -1.3937308721 -0.4993805247 0.3134037974
C -0.5081026126 0.2069131862 1.2956386669
H 0.6777442121 -1.7175257761 -0.6346539965
H 2.2831531700 -0.8865584742 -0.6593358180
H 1.7515676533 0.4239479506 1.3801417766
H 1.2136218942 1.3206652925 -1.1441904371
H -1.5132123745 1.2997318120 -1.0425591962
H -2.4555491794 -0.4298941753 0.5292106454
H -1.1107005560 -1.4756769431 -0.0545161663
H -0.8384045898 1.3927208718 0.6219523729
