14
0 1
O -1.7037419704 0.5013020360 -0.5012190388
C -1.4443850047 -0.7386177063 0.1217905927
C -0.1395166606 -1.3930167249 -0.2746899385
C 0.6880917653 -0.9236960862 -1.2202252151
C 1.3178741975 1.8009780177 0.9890267411
O 0.1909454443 2.2397105324 0.8365453570
H -1.0803362828 1.1536946324 -0.1118908340
H -1.4800719764 -0.6672750451 1.2290234235
H -2.2720874818 -1.4097060722 -0.1622565684
H 0.1070555000 -2.3142432702 0.2644089195
H 1.6144261837 -1.4356252043 -1.4812694886
H 0.4343227693 -0.0200404294 -1.7759568332
H 1.6261898628 0.8167792061 0.5782236372
H 2.0863786539 2.3768251139 1.5516342456
