10
0 1
C 0.8031878215 1.1601706626 -0.1410547798
C 1.8934883475 -2.1663358031 -0.0545769976
N 0.7520182219 -1.8180921419 0.0389573342
N -0.5675936870 -1.7005216136 0.1632204814
C -1.0846061958 -0.5027712130 0.1444245179
C -0.4997948978 0.8254051463 0.0074270240
H 1.0816687718 2.2101404972 -0.2326878185
H 1.6058933101 0.4302695780 -0.1745126567
H -2.1711839537 -0.5341668485 0.2529577998
H -1.2403567385 1.6281297360 0.0305280954
