13
0 1
O -1.2732786293 -0.9754279620 0.5569317831
C -1.4783853891 0.1525669651 0.1286846108
C -0.3919807077 1.2002823547 0.0341206619
N 0.8903140149 0.8110707820 -0.6813996211
C 1.1733854812 -0.6652842507 -0.7466037223
C 0.7460734789 -0.1433546954 -1.8432850824
H 0.5240811913 -1.3725276383 2.3399440873
H -2.4831744800 0.4281519305 -0.2789704009
H -0.0757197072 1.4596499342 1.0561013353
H -0.7661552916 2.1130311790 -0.4506677354
H 1.0828249028 -1.4760844460 2.8244041095
H 1.5413762453 -1.4414116551 -0.0926401682
H 0.4317248905 -0.1209564979 -2.8775698577
