15
0 1
C 1.4344532480 -0.9768971341 0.0483364879
C 0.7678373800 0.2843481187 0.5629425069
C 0.2716094971 1.3473457391 -0.3937478865
C -0.7187825505 0.5420509579 0.4189035988
C -1.6613134981 -0.4419706784 -0.2481116401
H 1.0093359112 -1.3000059244 -0.9112005848
H 1.3218233728 -1.8081958333 0.7608203588
H 2.5101899184 -0.8096689110 -0.1097605131
H 1.2051867631 0.6614444108 1.4906927166
H 0.4293674427 2.3983269237 -0.1500232596
H 0.3374410889 1.1209064344 -1.4597217378
H -1.1691617658 1.0728644680 1.2613637680
H -2.5672658929 0.0705535563 -0.6045753545
H -1.1967969308 -0.9279883648 -1.1163217731
H -1.9739239840 -1.2331137627 0.4504033126
