10
0 1
N -0.4745949183 1.3661396038 -1.4911271818
C -0.0824539331 0.8609594214 -0.4683502395
O 1.3660407953 0.7618869687 0.0249988492
C 1.6099308848 -0.4655356859 0.3597309140
O 0.7435224616 -1.3259059947 0.4736448527
C -0.9079517849 0.0296266257 0.4191188399
O -1.9960425421 -0.3480590416 -0.1157620044
H -1.9461893924 0.0754229020 -1.0266781326
H 2.6684680742 -0.6826116338 0.5402724971
H -0.8340906452 -0.0890251658 1.4925236055
