14
0 1
O -0.8412988168 -0.4285480998 1.4348495705
C -0.7507139418 -0.2359465009 0.1552398086
C -1.3650935577 1.0239302409 -0.4200705871
N 0.0909550186 1.4836899215 -0.4880892647
C 0.4649225561 0.0060960160 -0.5828486506
C 1.5035679345 -0.9214732588 0.0624406886
O 1.6795292036 -0.8991499884 1.2834150016
H 0.0461553225 -0.7819540499 1.7284123127
H -0.0033844064 -1.9268914789 -0.2913691708
H -2.0180089504 1.6013594398 0.2312470315
H -1.7676833401 0.9305263646 -1.4248114987
H 0.3456940599 1.8380630966 0.4307702316
H 0.3650093734 -0.2563316513 -1.6328026513
H 2.2243215448 -1.4155110517 -0.6025298220
