14
0 1
C -1.4372196180 -0.3466095820 0.2064189935
C -0.6056712113 0.4884758044 -0.6744249101
C 0.5162506562 1.1875697378 -0.1754618426
O 1.5853861392 0.5929313653 0.4043131836
C 1.6361604952 -0.7485706713 0.4963849754
N 0.7820717159 -1.5669837548 0.0723207978
C -0.4425500707 -1.1675787240 -0.4591083871
H -0.8965869490 0.6597558200 1.4702123332
H -2.4455509222 -0.5261079802 -0.1656498801
H -1.0567432286 0.9399946099 -1.5506960225
H -0.3807309743 1.3438568464 1.4833002061
H 0.8255661757 2.1160896669 -0.6423302034
H 2.5738537561 -1.0707407218 0.9321877927
H -0.7526469642 -1.8357474164 -1.2587350368
