15
0 1
C 2.2435998233 0.1539528136 0.0522850506
N 0.8320832056 -0.1064799250 -0.0892332348
C 0.2059160463 -1.3439931528 0.0047969425
C -1.2323761796 -1.2151286707 -0.0770794466
C -1.3835763178 0.2131550783 -0.0478883485
N -2.6334573444 0.8461031880 0.0164074129
C -0.1584312298 0.8298709284 -0.0894322620
H 2.7992796579 -0.7381253232 -0.2345319273
H 2.5420692178 0.9680067442 -0.6088025749
H 2.5102503171 0.4159047468 1.0799962957
H 0.7764239947 -2.2400514128 -0.2063237450
H -0.3548471622 -1.5163806357 1.0528266029
H -3.3688646031 0.1783912843 -0.1595712591
H -2.7289740021 1.6437846196 -0.5921319180
H 0.0917195761 1.8827877168 -0.0838305886
