17
0 1
C 1.7131809658 -0.4882622501 -0.4820374800
C 0.6284192573 -0.0097294940 0.4804747715
C 0.1250413956 1.4041002210 0.1505149251
C -1.1383157019 1.1585863758 -0.6255236326
C -1.5547386257 -0.0993227606 -0.5423814010
C -0.6074334075 -0.9018497031 0.2809152608
O -0.5052514085 -2.2162381966 0.1917423776
H 1.3967745974 -0.3703845730 -1.5209553246
H 2.6256942711 0.0909921800 -0.3343364824
H 1.9280577156 -1.5429651616 -0.3151133610
H 0.9943895277 -0.0978224630 1.5032191994
H 0.8522527598 1.9861017021 -0.4203085255
H -0.0993461047 1.9804098709 1.0542242960
H -1.6462534727 1.9437017429 -1.1729493092
H -2.4374497190 -0.5367068533 -0.9871092422
H -1.2586071483 -0.7577580836 1.6143178064
H -1.0626469021 -1.6727795536 1.2873381215
