16
0 1
C -2.1646441948 -0.1675692056 -0.7418062979
C -0.3264752847 0.3437130002 -0.7630564111
O -0.2959141586 1.5983163942 -0.3063191783
C 0.3222741553 -0.7374100579 0.0736837977
C 1.8454855619 -0.5759210097 0.1211076439
O 2.5764857018 -1.5394162222 0.0342428636
N 2.2758302370 0.6888411602 0.3022466397
H -2.4041948137 -0.6365783282 0.2084470852
H -2.0772184653 -0.8906561554 -1.5456089823
H -2.9416951020 0.5525141461 -1.0316402526
H -0.1604476918 0.2099634323 -1.8418727784
H -1.4739344017 0.9289627109 -0.4661876801
H -0.0505781139 -0.6645633459 1.0979386441
H 0.1231736697 -1.7350602373 -0.3134897343
H 3.2657508309 0.8555053854 0.3285829124
H 1.6116740699 1.4517563330 0.2896977283
