14
0 1
C 1.3484476933 1.1205794395 -0.4692372463
N 1.2484714435 -0.1000513022 0.0748330665
C 0.1576337483 -0.8297721318 0.0430088992
N 0.2311852754 -2.1961159794 0.3255164045
C -1.1623111669 -0.2922488032 0.0283687727
O -2.1947221152 -0.8522778867 0.3583637209
N -1.2008127961 1.1989175412 -0.0281265779
H 2.2786278323 1.6454919881 -0.2803536746
H -0.1140039224 1.5593645846 0.0792567695
H 0.9325122132 1.3003527602 -1.4632094242
H -0.5611253627 -2.5337776088 0.8537697383
H 1.1197101645 -2.4440572278 0.7328163782
H -1.4613691459 1.5434966823 -0.9466986087
H -1.9085688613 1.4979339440 0.6430977819
