15
0 1
C -1.5462176556 -0.2281052641 -0.3088319859
C -0.6167612382 -0.5130966107 0.8791759566
O 0.2243218511 -1.5800810899 0.4120968634
C 1.1030063291 -0.9879555210 -0.4617320017
C 1.6184405800 0.2580245247 0.2808700649
C 0.2177253847 0.7472073706 0.4767651475
C -0.3447927469 0.4337370047 -0.9317985230
H -2.0470485472 -1.0633395523 -0.7975171315
H -2.2676337292 0.5432289681 -0.0228630970
H -0.9877336017 -0.7030039098 1.8836333793
H 0.5284091924 -0.6260978389 -1.4634887649
H 2.1963042818 -0.0088094134 1.1664506454
H 2.2092326587 0.9003503219 -0.3719311188
H -0.0579617350 1.6826451776 0.9672855967
H -0.3233870242 1.0891298326 -1.7986480309
