11
0 1
N 2.0262837614 -0.1315727315 -0.5842416950
C 0.6667634132 -0.3267277993 -0.5923139350
C 0.0622757322 0.9482623588 0.5247012346
N -1.0003538312 1.0341975162 1.0464184628
C -2.3661301797 -0.3259298810 0.4069933927
N -2.1543915124 -0.9352948055 -0.5688412003
N -0.0697900963 -1.0403323708 -1.2134863892
H 2.4143416583 0.1448981743 0.3042679328
H 2.5484329331 -0.8666807085 -1.0333753548
H 0.9333085222 1.5965393793 0.5583008104
H -3.0336634008 -0.0493171322 1.1950087411
