21
0 1
C -3.4157127147 -0.0837523482 -0.7815468175
C -2.2591947008 -0.3110909566 0.1823893761
C -0.8970576671 -0.1227538045 -0.4742300470
C 0.2661492661 -0.3452620177 0.4898609905
C 1.5881762950 -0.2250055818 -0.1844710358
O 2.5866111912 0.2063226543 0.5195845901
C 3.7869860116 0.4390136120 0.0250298205
H -4.3800063542 -0.2186426226 -0.2885156651
H -3.3707892348 -0.7806103516 -1.6221007275
H -3.3917243945 0.9284163218 -1.1925654204
H -2.3479244047 0.3756787834 1.0307878388
H -2.3226347371 -1.3207014489 0.6021613640
H -0.8047371072 -0.8130622716 -1.3206628619
H -0.8238260398 0.8849184262 -0.8953381048
H 0.1626203722 -1.3399872656 0.9464858874
H 0.2238849471 0.3783564896 1.3081194405
H 1.8183380818 -0.8112834546 -1.0703702856
H 2.0514558267 1.3160184210 -1.3675137872
H 4.1299731161 -0.1945692374 -0.7848210411
H 4.4812900165 0.8199245897 0.7581365537
H 2.8260822305 1.4944070633 -1.2384260676
