15
0 1
C -1.0285939426 1.1274957169 -0.1513025174
C -0.2318140889 -0.1498989116 0.0259903168
C 1.1953656813 -0.1196070365 -0.5058359382
C 2.0442579213 0.8280289757 0.2127557197
N 2.6856673419 1.5830813506 0.7902554083
C -0.8048673175 -1.6745017457 0.9337276366
N -0.9356987171 -1.3441783584 -0.4454462700
H -0.4878814729 1.9844519468 0.2511279009
H -1.2154432689 1.2996940103 -1.2137947756
H -1.9847611090 1.0495642245 0.3668716752
H 1.1713030026 0.1594468455 -1.5620179216
H 1.6355994329 -1.1150976303 -0.4431535804
H -0.2389097876 -0.2692582143 1.1989957529
H 0.2139772184 -2.0952772307 1.0320208173
H -1.9003128939 -1.0908119426 -0.6317532246
