19
0 1
C -1.9332222399 -0.9740327509 -0.5449161690
C -0.8920913071 -0.0816123307 0.0836113386
C -1.3427021138 1.0601553224 0.8244914140
C 0.2801612963 -0.8094202411 0.6788724525
O 1.2117335576 -1.4776800148 -0.1437116674
C 1.6804616059 -0.3972115681 0.6639102570
C 2.2239477223 0.8186089963 -0.0261036093
H -2.6798927225 -0.3820661570 -1.0726808167
H -1.4821274369 -1.6881951086 -1.2334821563
H -2.4355205997 -1.5084286863 0.2651961388
H -0.2356292168 0.2775185169 -1.2465579137
H -0.6703351487 1.5578798974 1.5064502923
H -2.3542556595 1.4153868382 0.6979160614
H -0.6363696814 0.9814738893 -0.5513005869
H -0.0701139342 -1.3847156355 1.5365277415
H 2.2769169445 -0.7329469961 1.5108961501
H 1.6101777705 1.1129721262 -0.8765089547
H 3.2300389259 0.6135272696 -0.3956996044
H 2.2851912375 1.6509866325 0.6773046320
