14
0 1
C -1.1109690690 -0.1619811328 0.5640977755
C -0.1382124402 1.0934467458 0.4606145080
C 1.1360762800 0.5709611035 1.0274207142
C 1.1493479200 -0.7958505275 0.3472790480
C -0.1460675351 -0.7638732826 -0.4883617852
C -0.0344685530 0.6681429855 -1.0705307826
H -2.1036614759 0.0906289553 0.1688074253
H -1.1970143262 -0.6593922504 1.5399162860
H -0.4757403249 2.0947616520 0.7475515573
H 0.8804332577 0.9423694354 -1.6135369485
H 2.0781857962 -0.9036147125 -0.2391070699
H 1.1849667756 -1.5856948647 1.1176040603
H -0.4188058433 -1.6269070356 -1.1059134842
H -0.9253014618 1.0004789287 -1.6195853043
