15
0 1
N 2.1493643568 0.2270673422 -0.6086044655
C 1.0713489100 -0.4481609439 0.1000322389
C 0.7110754649 0.1574110646 1.4623260490
N -0.5926168068 0.2330129499 1.4535616201
C -0.2193174297 -0.5245744589 -0.7047168951
C -0.9925246428 0.7491770856 -0.9280856300
C -1.3038431975 -0.1400167402 0.2375949114
H 2.9352137379 0.3413153101 0.0201357758
H 1.8536999516 1.1613883932 -0.8648633156
H 1.4075697108 -1.4701703052 0.3138466240
H -0.3567527805 -1.3288086260 -1.4134509618
H -0.5298385426 1.7046965269 -0.7116743757
H -1.6884816413 0.7576797621 -1.7565416790
H -2.2488719527 -0.6542370770 0.3476260693
H -1.1016291382 0.6227187165 2.2325930341
