15
0 1
C -1.4205456887 0.3162019351 -0.7577273440
C -1.4359209247 -0.0561363651 0.7007082153
C -0.1479567305 0.0023234128 -0.0487916162
C 0.8204177262 -1.1540816808 -0.2463371756
C 2.1151079277 -0.3452834732 0.0664080848
O 1.9242127947 0.8094852906 -0.7391076626
C 0.9463287403 0.9887454010 0.2408737220
H -1.7841963649 -0.4118471927 -1.4713020819
H -1.6199481335 1.3467857600 -1.0239537816
H -1.6440196457 0.7268389042 1.4200416596
H -1.8160136303 -1.0308466126 0.9789023902
H 0.6728601890 -1.9820922459 0.4458258336
H 0.8897401815 -1.5352232469 -1.2671854176
H 1.5532892300 0.4256799742 1.1654456898
H 0.8528823287 2.0110901393 0.5990384841
