14
0 1
C -1.8379184645 0.3378297073 -0.4674702137
C -0.4287342252 -0.0194904720 -0.1258692672
C 0.7421588505 0.6539878917 -0.4310731047
C 1.7844652848 -0.1686804453 0.0158477709
O 1.4033961969 -1.3605423493 0.4836092331
C -0.0672019313 -1.3120296258 0.5478560479
H -2.3881896608 -0.5247883788 -0.8796293236
H -1.8627002643 1.1530070825 -1.2012057145
H -2.4028756773 0.6719031650 0.4208463417
H 1.1388556943 1.8113110136 -0.3425922615
H 1.8558513245 2.3889780827 0.3661417526
H 2.8535574477 0.0245639801 0.0273154308
H -0.3259753070 -1.4409675468 1.6144379164
H -0.4513262683 -2.1800401049 -0.0082456082
