12
0 1
O 0.8094254190 2.5175102674 0.4776923545
C 0.5035650928 1.3865224711 0.1907018116
N 1.3000712002 0.4464437225 -0.4148347971
C 0.5174919058 -0.7101499629 -0.6373230096
C -0.8861068136 -0.5489483457 -0.0948007311
O -0.8524338466 -0.3193214715 1.2966198019
C -0.8950794261 0.8131940450 0.4277550492
H 1.4063805711 -0.9810152951 0.2452193769
H 0.9239152781 -1.7583943782 0.1257319617
H 0.6675665105 -1.2237258561 -1.5886791565
H -1.7299478548 -1.0941782550 -0.4988504203
H -1.7734580363 1.4418850585 0.4933507587
