17
0 1
C 1.9076397284 0.8682845561 -0.4768099408
C 0.9107730490 -0.8598829132 -0.0069867927
C 0.5986799936 -0.6974265494 1.4074533598
O -0.6738222013 -0.0341406782 1.3046824348
C -1.2783548952 -0.4787691616 0.1434341256
C -2.1986681383 0.5511833442 -0.4447291470
O -0.1655119233 -0.7487999639 -0.7807197944
H 1.9942870572 0.5614083879 -1.5155418187
H 2.9050284715 1.0599205140 -0.0718498515
H 1.2613548036 1.7426636342 -0.3992427468
H 1.7118442914 -1.4998664572 -0.3546320638
H 1.5150735013 0.2379701676 0.6716750580
H 0.5817893921 -1.6143324368 1.9964613370
H -1.7718933137 -1.4519208304 0.2823597073
H -1.6557231699 1.4819200538 -0.6080009416
H -2.6097169090 0.1986431340 -1.3905296019
H -3.0179967373 0.7365281988 0.2497486766
