15
0 1
O 0.8295502425 -2.5809603936 -0.8279998091
C 0.8391939769 -1.5726727588 -0.2175986154
C -1.1586984968 -0.7849558728 0.1205003328
C -0.8622822763 0.6441382939 0.2880562451
C 0.0458469748 1.2925623398 -0.7075142485
C 1.0744604887 0.8182232216 0.2386989496
C 1.5270324023 -0.5016206348 0.3030327967
H -1.3204712514 -1.1998503928 -0.8688261718
H -1.4734574094 -1.3753799318 0.9699525206
H -2.0610228314 0.1324314882 -0.0438466968
H -1.1297326110 1.1585211200 1.1986533184
H 0.0301325724 0.8292051892 -1.6925558188
H -0.0492175809 2.3713248523 -0.7852271775
H 1.4872165253 1.5343878796 0.9375212007
H 2.2238432743 -0.7825054000 1.0878361742
