12
0 1
O -1.7403583721 0.7334134188 0.4499109300
C -0.7105498187 -0.6243663378 -0.7384767637
C 0.4162635133 0.1832153902 -1.2791974393
C 0.6815780253 -0.7159922180 -0.0858253221
C 1.0478973067 -0.0202690737 1.1711935116
O 1.6398890529 -0.5294739647 2.1103615861
H -2.4257008365 0.6669720982 -0.2446791406
H -1.9793604507 0.0098276249 1.0643178325
H 0.7708040814 -0.0846508680 -2.2781927865
H 0.4854289840 1.2518255071 -1.0549441362
H 1.1275050629 -1.7076047173 -0.1896348423
H 0.7281864514 1.0503961401 1.1912575705
