15
0 1
C -1.7848732774 -1.0687141864 0.2505512572
C -0.8270255714 -0.0540698220 -0.3092785137
C -0.5548199869 1.2915557204 0.2360554669
N 0.3108333006 0.3296989051 0.5172337933
C 1.6386258147 0.2417409113 0.3149121843
C 2.1640200893 -1.0102625056 -0.1189382063
N 2.5933071486 -2.0045584299 -0.5078811781
H -1.9287861679 -0.9186152749 1.3207014425
H -1.4140619046 -2.0818228721 0.0834738436
H -2.7530464137 -0.9784446446 -0.2446928848
H -0.5958622499 -0.1641256202 -1.3718739362
H 0.5538319985 1.8995601600 -0.8646879483
H -1.0076791541 2.0940915364 0.7942947904
H 1.3372837529 1.5364971308 -0.9514330572
H 2.2738426215 0.8629969919 0.9328469465
