17
0 1
C 1.8756955054 0.4552170659 0.1950803680
C 0.5798588572 -0.8053627455 -0.3382675676
C -0.3938672468 -1.1333751006 0.8114824466
C -1.4715441398 -0.3366591030 0.0627465781
C -0.6734446149 -0.6902872137 -1.2289991144
C -1.0647992867 1.0922712714 0.2234528410
C 0.2212188199 1.3314856315 0.0568051333
H 2.4382953017 0.5511380877 -0.7277714372
H 2.0731792419 1.3610448291 0.7970066654
H 2.2979991429 -0.3342371165 0.8094528604
H -0.1454792084 -0.8511873669 1.8343454386
H -0.5755243208 -2.2107793342 0.7630239288
H -2.5367104203 -0.5541186831 0.1718560625
H -0.7089814604 -0.0060366243 -2.0730365733
H -0.8658426980 -1.7128839975 -1.5724060199
H -1.7854804698 1.8984136683 0.3057614645
H 0.6302379969 2.3225527318 -0.0610340747
