14
0 1
O 1.9644035009 -0.1417760261 -0.5893910946
C 0.9541130679 0.0730698035 0.4082724324
C 0.2227304698 1.3348697946 0.1341708125
N -0.8759121750 0.8273000167 -0.9401866956
C -1.0904980801 -0.6053892672 -0.8030800916
C -0.0435947066 -1.0704406999 0.2069382438
O -0.0282153994 -2.1523943203 0.7247294161
H 2.3988802617 -0.9796631155 -0.4040005615
H 1.3810774860 0.0559530425 1.4138825967
H -0.2869632445 1.7593067350 0.9949584431
H 0.0630159281 1.3975714873 -1.2480997589
H -1.6917006051 1.4171940959 -0.9496442555
H -0.9804284194 -1.1482390459 -1.7429213167
H -2.0842660843 -0.8038825008 -0.3987201701
