14
0 1
O 1.6393939856 -1.0677862184 1.5109796184
C 1.9119841411 -0.3955937861 0.3061316984
C 0.7713158676 -0.2972973446 -0.6168648737
C -0.1044675409 -0.1585338873 -1.5026616829
C -0.6805907831 0.6942478940 -0.1770662712
C -2.0903032003 0.3720155445 0.1448149222
N -1.0696644933 0.1397337183 1.1440021821
H 1.1313694986 -0.4800932361 2.0771734414
H 2.3105186173 0.6088743598 0.4890639283
H 2.6845673455 -0.9595073235 -0.2213699490
H -0.3827630997 1.7342104475 -0.1456015902
H -2.5205427352 -0.4776983501 -0.3698849063
H -2.7663279231 1.1940945827 0.3505498136
H -0.8458676803 -0.8506014006 1.1603426690
