11
0 1
N 1.8595097154 -0.7411426199 1.9943113748
C 1.2832593048 -0.5789081044 1.0151697057
C 0.5554308038 -0.3504059094 -0.2324848723
C -0.9658649161 -0.4897050077 -0.0783577087
O -1.3162069532 0.9152458115 -0.0984693380
C 0.4176815329 1.1088176151 -0.6647119135
H 0.9915623124 -0.9803938899 -1.0094770462
H -1.2936207955 -0.9134721877 0.8671397634
H -1.4368316703 -1.0203466096 -0.9070879665
H 0.8348571791 1.8193341112 0.0494666947
H -0.9219625132 1.2382377908 -1.0484226932
