14
0 1
O -1.2701410322 -0.7825772491 1.2914049933
C -0.9733826248 -0.0684271471 0.1228399635
C 0.0223161892 1.0612262397 0.5058933570
O 0.8916519040 0.6873175732 1.4293684289
C 1.6056968417 0.0942239635 -0.3892866492
N 1.1172402984 -0.9051845771 -0.8405272945
C -0.3389139415 -0.9998221899 -0.9340511708
H -0.5010663141 -0.6335126713 1.8676694625
H -1.9021518369 0.3482740994 -0.2752226522
H 0.6439801516 1.2510081654 -0.5523502531
H -0.4487330061 2.0538709933 0.6155679249
H 2.5034357088 0.6386136872 -0.1591986013
H -0.6132271438 -0.7193543508 -1.9552904510
H -0.6562571943 -2.0246625364 -0.7555940578
