19
0 1
C -2.0121235743 -1.0061529670 -0.8157628631
C -0.8029999901 -0.2324484138 -0.4611904555
C -0.8151140156 1.0250879152 1.0698169108
C -0.0385961590 -0.4143375371 0.6814859223
O 1.8144315047 -1.6524260803 0.4738431446
C 1.5502320370 -0.3931926247 0.6954936841
C 2.1235575905 0.6000671411 -0.3269213862
H -2.7540271872 -0.4121624011 -1.3491360207
H -1.6684704028 -1.7948267732 -1.4970350190
H -2.4582342019 -1.4923253878 0.0505534973
H -0.4353756771 0.4791188641 -1.1962121671
H -0.6410317293 0.9532845252 2.1442983761
H -1.8914313168 1.1452396243 0.9316939884
H -0.2768459650 1.8714708774 0.6581951184
H -0.3872783965 -1.1825152969 1.3663928710
H 1.8079894783 0.0016554747 1.7150150522
H 1.8840382916 0.2799128244 -1.3442157703
H 3.2094728199 0.5758924108 -0.2313950272
H 1.8013838938 1.6377158249 -0.1752998562
