15
0 1
C 2.0910727889 -0.0962289448 0.4089996395
N 1.0313121129 -0.2615531768 -1.1245018226
C 0.8478220023 1.0039393714 -0.5522075016
C -0.4181440615 1.0557231582 0.0265174466
C -0.9300918293 -0.2145999945 -0.1964374402
C -2.2581250511 -0.7668009528 0.1973149688
N -0.0450755004 -0.9888216716 -0.8535687068
H 2.8788258038 -0.6784945156 -0.0524077094
H 1.4783411739 -0.6705143567 1.0932099452
H 2.5059587535 0.7913189619 0.8816917417
H 1.4948556799 1.8165487031 -0.8473196497
H -0.8883143061 1.8904431205 0.5197313051
H -3.0473695096 -0.0251211919 0.0718459491
H -2.2522706872 -1.0750703917 1.2452073795
H -2.4887003697 -1.6406701185 -0.4103755453
