16
0 1
C 0.9733213536 0.1663101293 -1.8809070804
N 0.6093815471 0.1467776099 -0.6102235608
C 1.1750119173 -0.3173597030 0.5078152900
C -0.1890451433 -0.8033618525 0.1429436403
C -1.4613936485 -0.3133407051 0.7697884778
O -2.3321318997 -1.1079700765 1.0244265222
C -1.5778599830 1.1508800967 1.1078078227
H 2.0993336734 -1.2989703175 -1.3519831125
H 1.8175109632 0.7892733415 -2.1475609530
H 0.2146251607 -0.0372845796 -2.6258541624
H 2.1315275306 -1.2932865060 -0.4939468933
H 1.5893476886 0.2035701107 1.3556458533
H -0.2552339808 -1.8168374864 -0.2567161221
H -2.5884582326 1.3565961187 1.4514979366
H -0.8685336763 1.4057578074 1.8981945939
H -1.3356482705 1.7744650123 0.2460467478
