9
0 1
O -2.1082232611 -0.4325968393 -0.0014820999
C -0.7977256996 -0.1121010737 0.0448443119
N 0.1639540487 -1.0265382138 0.1285719001
N 1.3012985878 -0.3214699751 0.0145828374
N 1.0737099208 1.0490848697 0.1140115572
C -0.3076078694 1.2486001486 0.0679452214
H -2.1808424586 -1.4077544706 0.0240076270
H 2.1616951679 -0.7145695742 0.3925889019
H 0.6937415635 1.7173451283 -0.7850702569
