12
0 1
C -1.2451813743 -0.3104160716 -0.0604338508
O -0.7891846146 0.7761172303 -0.8657694933
C 0.3484476069 1.3162510766 -0.4368032905
C 1.2508793067 -0.6746622830 -0.2958172685
O 0.7876421693 0.1542603345 1.0222835977
C 0.0317900816 -0.9074059073 0.4792943265
H -1.8838872411 0.0509899409 0.7523766704
H -1.8089407550 -0.9783329818 -0.7110118280
H 1.0478718188 1.5373144124 -1.2317729349
H 0.2611550222 2.0740940183 0.3411172268
H 2.0605938297 -1.3243051445 0.0535973684
H -0.0694598502 -1.7527256247 1.1537874761
