10
0 1
N 1.9203638290 -0.0678579653 -0.3105112495
C 0.5573688620 0.0458422833 -0.1063650257
N -0.2541486870 -0.9959753762 -0.0061121209
N -1.5247816617 -0.7662095026 -0.1779894029
C -1.2702410546 1.4865460452 -0.0887798352
N -0.0409546697 1.2944458485 -0.0879583850
H 2.4733342945 0.6094281829 0.2112618373
H 2.2492900851 -1.0217654786 -0.1899180400
H -2.0601703975 -1.5127278205 0.2920230504
H -2.0513676001 0.8991067833 0.4647361715
