14
0 1
C -2.1601678004 0.0545210969 -0.1200871858
C -0.8007153272 -0.4317344673 0.3077568309
C 0.3826882864 0.1571302558 0.0458566390
O 0.5590820498 1.3113400834 -0.6938818238
C 1.7214304228 -0.3429770607 0.5226709876
O 2.6238496617 -0.5995361190 -0.5533924544
H -2.8620772413 0.0544620000 0.7273477251
H -2.5970333524 -0.5885768298 -0.9012252064
H -2.1482947176 1.0834728217 -0.5145569037
H -0.2963048470 1.5634685161 -1.0896874285
H -0.7696832235 -1.3606818687 0.8770214346
H 2.1474634791 0.3971138273 1.2281343956
H 1.5911016273 -1.2889613502 1.0602069079
H 2.6050959822 0.2035480944 -1.1076819181
