8
0 1
O -2.5568301490 -0.7133623775 0.5754567991
C -1.4371929779 -0.4198512509 0.4941961936
C -0.8472650698 1.1979459090 -0.6132534266
C 0.3784467552 0.9589736809 -0.8668644027
C 1.4114888633 0.1299962112 -0.3909546427
O 1.1450287597 -0.7803585363 0.4674249888
H -0.0791528711 -0.7315354210 0.6358325857
H 2.4614896896 0.2102827847 -0.6976500952
