13
0 1
C 0.5639730811 -0.7297879728 0.5191132555
C -0.8028876451 -0.9960272175 -0.1055733507
O -1.6472006023 0.1785281211 -0.0337404642
C -0.9963748039 1.3739631865 -0.1842536373
N 0.2495851935 1.6219291507 -0.2798205416
C 1.1813145478 0.4974221672 -0.1670109532
H 0.4356189252 -0.5285575689 1.5927361332
H 1.2049588973 -1.6176962719 0.4177722328
H -0.6972028687 -1.2749534648 -1.1657317261
H -1.3580011127 -1.7870927369 0.4121542455
H -1.7317506262 2.1819278124 -0.2137730029
H 2.0652036557 0.8461540289 0.3866216946
H 1.5327633582 0.2341907659 -1.1784938856
