15
0 1
C 2.7056779895 -0.5842952082 -1.6317297782
C 1.8339526573 -0.6669363241 -0.4475242755
C 0.9516590102 0.0951105079 0.0837924398
C -0.2512285663 0.5094556936 0.6451724829
C -1.5603394790 -0.0026995078 0.2115733658
C -2.7182526850 0.0552834358 1.1119416613
O -2.6098424379 0.9453984926 0.0230608036
H 3.7440392395 -0.7967172455 -1.3717905968
H 2.4038284183 -1.3821923012 -2.3170702289
H 2.6562699201 0.3637001943 -2.1805141871
H 0.9727726147 1.2392920245 -0.1312224967
H -0.2439924505 1.3136915226 1.3724760180
H -1.5282892028 -0.7893201035 -0.5362252727
H -3.4911149748 -0.7037233617 1.0263687803
H -2.6041750532 0.5030121806 2.0957352843
