8
0 1
O -2.3697387274 0.3273784397 0.8985359105
C -1.2874350123 0.9081792546 0.7999177733
C -0.1782714901 0.2593235798 0.0947165162
O -0.1265872007 0.4044890946 -1.1933335539
C 1.8366903152 -1.3875763496 -0.5683441302
O 2.4983463629 -2.0819792242 0.0613674432
H -1.0243282864 1.8174026991 1.3960039471
H 0.6334370388 -0.1895534939 -1.4902039062
