12
0 1
O 2.0040855416 -1.8399556935 -1.1010976729
C 0.8312648362 -1.3722216816 -0.6707158460
C -2.1234825635 1.2762577978 0.7751919439
C -1.0827557943 0.6610902547 0.1936860582
O 0.0593040056 0.3538763925 0.8848506338
C 1.1520826630 -0.1063623002 0.0943924844
H 1.8207198161 -2.6525327475 -1.6178752492
H -3.0197623321 1.4836722373 0.1958021173
H -2.1042759373 1.5582423751 1.8265770322
H -1.0962231503 0.3568067059 -0.8553635939
H 1.9925183711 -0.2351611983 0.7943446273
H 1.4622135438 0.6612468578 -0.6454275351
