19
0 1
C -2.2807128411 -0.4171194378 -0.2539414620
C -1.1021735911 0.5087995891 -0.0103902961
C -0.0359975851 -0.0286631302 0.9856556723
C 1.3595671180 0.3431655235 0.3749402600
C 2.4165220554 -0.7111768671 0.6546309685
C 1.1744456731 0.6217384788 -1.1494666647
C -0.1030406918 0.6381530632 -1.1022649599
H -1.9363239175 -1.4031475798 -0.5726119483
H -2.8678817790 -0.5360194553 0.6585242250
H -2.9491195609 -0.0223885252 -1.0233106111
H -1.4650124879 1.4918859678 0.3067163710
H -0.1791266294 0.3509358640 1.9991735794
H -0.1249675641 -1.1182674028 1.0237914348
H 1.6942708323 1.2984254351 0.7914892952
H 2.1467850654 -1.6589841709 0.1830966254
H 2.5167780173 -0.8842709269 1.7304996885
H 3.3826999963 -0.4004707717 0.2574436753
H -0.8611635937 0.5737764228 -2.5133205459
H -0.7834525160 1.3464119235 -2.3761143077
