12
0 1
O 2.6793527860 -0.4146607994 -0.4306549754
C 1.4898650622 -0.2928911312 -0.4957339440
C 0.6733799458 0.4045114213 0.5356752360
C -0.4856622502 1.2175939389 0.0172710453
N -0.7008162015 -0.0028552570 0.7140589350
C -1.2884103130 -1.1278906665 0.1573002541
O -2.2360832375 -1.0994574780 -0.5769391544
H 0.9102879948 -0.6910474592 -1.3576483532
H 1.2088812439 0.7248707931 1.4216718844
H -0.6698839952 1.2164627191 -1.0531180777
H -0.7468991994 2.1282027879 0.5413781243
H -0.8340118360 -2.0628388689 0.5267390257
