13
0 1
O 2.2412805158 1.3311948600 -1.4370074354
C 2.0613980912 0.4628464732 -0.6158845181
C 0.7423778567 -0.0216933425 -0.2502244777
O 0.6376505512 -0.7788115103 0.8549166680
C -0.6216720008 -0.6291940743 1.3115650322
C -1.5744441054 -0.3187737739 0.2257693312
C -0.5754650527 0.6104060736 -0.4306197400
H 2.8917645597 -0.0390850663 -0.0857262054
H 0.0777872286 -0.2896904818 -1.2790555993
H -0.8007571726 -1.0164612502 2.3031715702
H -1.9230185128 -1.1771494738 -0.3860107044
H -2.4570539710 0.2058825780 0.5893718438
H -0.7221849876 1.5702519883 -0.9025137651
