18
0 1
C -2.8266392505 0.2023202319 -0.2649801031
C -1.4157639282 -0.3790976432 -0.3032382663
C -0.4160795342 0.4241841115 0.4926003020
C 1.5188292734 -0.8371342219 0.4935848756
C 2.6002100090 -0.1525959410 -0.0277936408
C 0.2687697480 1.4495378424 -0.0521832250
N 1.2040132346 2.0382456211 -0.4972450928
H -3.5208294545 -0.4238128815 -0.8286833103
H -2.8444243540 1.2044700520 -0.6965322937
H -3.1953798250 0.2736214771 0.7606561991
H -1.4320190890 -1.3961363092 0.0998397187
H -1.0718909898 -0.4572203590 -1.3376683817
H -0.6009927751 0.5069753736 1.5604551126
H 1.4119307360 -0.9616835051 1.5633715375
H 0.9885119573 -1.5610794433 -0.1116236001
H 2.9393886480 -0.3993997261 -1.0288459115
H 2.0431750003 1.1499006145 -0.3801046613
H 3.3638745940 0.2151547063 0.6497827411
