17
0 1
C 1.8926789589 -0.7227489637 0.2577803942
C 0.7581944217 0.1984796003 0.6505420070
C 0.2360838709 1.2483202049 -0.3953988495
C -1.1801716045 0.9241344257 0.1150811821
O -2.2218721903 0.0452122319 -0.5880389402
C -1.1333307109 -0.9926577706 -0.5996685854
C -0.6973903558 -0.3664162004 0.7408356287
H 2.0466932083 -1.4845380789 1.0248590706
H 2.8299775566 -0.1746999097 0.1350682364
H 1.6850907589 -1.2379663441 -0.6841381654
H 1.0119630974 0.7109722283 1.5818443170
H 0.5183678768 2.2908808353 -0.2412736327
H 0.4520665007 0.9957312926 -1.4319280656
H -1.7171330315 1.7168401261 0.6334507887
H -0.5442289463 -0.8219764185 -1.5028193585
H -1.5685984691 -1.9901807683 -0.6155482185
H -2.2833689420 -0.3450914909 0.5343961910
