13
0 1
N -1.9661725526 0.5322635805 -0.0291583309
C -0.5464683751 0.3890808883 -0.0815946675
C -0.0093877401 -0.8705337898 -0.0480590110
O -0.6283817228 -2.0455905642 0.0336934151
N 1.3417148778 -0.7995824013 -0.0710535589
C 1.6646591621 0.5544037187 -0.1223021375
C 0.4908395127 1.3648906854 -0.2178730169
H -2.3121651326 1.0102033760 -0.8504370364
H -2.2468731789 1.0829322229 0.7713283824
H -1.5728051957 -1.8277078236 0.0601655556
H 1.9630987285 -1.5823504727 0.0268721166
H 2.6837479458 0.8534000267 -0.3230820182
H 1.3051756708 1.2947545531 0.8526123079
