10
0 1
N -1.1238146648 1.2831292423 -1.1937921372
C -0.4070320710 0.5880743599 -0.4573904495
O 0.9409771719 0.7333080401 -0.1754540648
C 1.2277512565 -0.4140193202 0.4919166727
O 2.2107753157 -0.8630052681 0.9277531031
C -0.7679662107 -0.5950449918 0.4089112433
O -0.2512352316 -0.4886536486 1.5843779942
H -0.6256247011 2.0582140727 -1.6243370716
H 0.3468773601 -1.2730723783 -0.2061986964
H -1.7155042250 -1.1139321078 0.2346924063
