9
0 1
O -2.5743217720 -0.7240570284 -0.1732672387
C -1.7921750440 0.1712717714 -0.0519322747
C -0.3168164699 -0.0293378839 -0.0145598402
N 0.5697689161 0.9034189295 0.1089970286
C 1.7286993954 0.1801696933 0.0833563558
N 1.5602047983 -1.1002225672 -0.0460166057
O 0.1973765232 -1.2471856590 -0.1120302383
H -2.0852881864 1.2307135626 0.0437661085
H 2.7125518393 0.6152291819 0.1616867046
