14
0 1
O -0.4700001856 2.6539515301 -0.2015452783
C -0.1497873621 1.4546776801 -0.0743079067
C -1.2835081381 0.4221916017 -0.0432771001
C -0.2575767801 -1.0598121649 0.3689423538
C 1.0776053891 -0.6814811361 -0.2865327040
C 1.1104687580 0.8001996265 -0.0224262504
H -2.0340726172 0.5321689892 0.7435740151
H -1.7559475628 0.2162978493 -1.0165237014
H -0.1344182023 -1.7860930079 1.2093755532
H -0.9972073480 -1.6454766881 -0.2237351643
H 1.0916172273 -0.9569019152 -1.3585684385
H 1.9014862346 -1.2290327930 0.1961046928
H -0.1934892272 -0.1965480948 1.2023273223
H 2.0231768145 1.3812995231 -0.1457723937
