10
0 1
N -0.0103568730 0.8447692171 -0.5704009501
C -0.2711563041 -0.1869987131 0.1234206330
O 2.0201077105 -1.4479209229 -0.7805541882
C 1.6165822360 -0.5020208017 -0.1986397732
O 1.2287515887 0.8308914520 -1.0544215672
C -1.6148174181 -0.3178848334 0.7341095965
O -2.6234403044 -0.0270366880 0.1431843320
H -0.5767307357 1.6650563267 -0.7773506188
H 1.9916360733 -0.0681678575 0.7374167682
H -1.6380079732 -0.7420041791 1.7522707676
