11
0 1
C -1.4753769122 0.1161841066 0.1452651655
C -0.9224843033 -0.9251947599 -0.7973592939
O 1.9099548596 0.9418458971 1.2205718828
C 1.8994751339 0.7513996338 -0.0778049556
N 1.4942601786 1.9477524253 -0.2237440008
C -0.5828600668 -1.0602152462 0.4546455558
H -1.0516981651 1.1280085750 0.1423091658
H -2.5345325663 0.0776485817 0.4296960889
H -0.8867326529 -1.2763395002 -1.8230460926
H 2.1558714013 -0.1187061888 -0.6842336135
H -0.0621779067 -1.6029825244 1.2351520976
