14
0 1
C -1.7592195309 0.0977516884 0.2583777473
C -0.4251906552 0.2596774439 -0.4692533221
C 0.5678643080 1.2186171925 0.1621182756
C 1.7006162212 0.5617195623 0.4364789390
N 1.5977001381 -0.7883382234 0.0509550923
C 0.4073208166 -0.9872861086 -0.4545063323
O 0.2754297709 -2.2104416752 -0.7774362509
H -2.3166528089 1.0344141264 0.2410994517
H -1.5978923276 -0.1843748748 1.2995676939
H -2.3631330704 -0.6749614420 -0.2187817663
H -0.6132282754 0.5293859929 -1.5146654381
H 0.3720324929 2.2636768496 0.3478527891
H 2.6084783277 0.9368259382 0.8832599254
H 1.5203035930 -2.0660484702 -0.2571488048
