9
0 1
N -1.5307512483 -0.8157702324 0.2744918335
C -0.3441365788 -0.2600913512 0.4654738047
O 0.6721799980 -0.6310818333 -0.3097977534
C 1.8572048549 0.0840060417 -0.1304605947
O 2.8081652030 -0.1767730092 -0.7702182300
C -1.5368330185 0.7284767455 0.2888928698
N -2.0776778776 1.7351130957 0.0522110628
H -1.6661288617 -1.3998031520 -0.5624149260
H 1.7515225290 0.8621206953 0.6369639333
