14
0 1
C -1.1729372059 -1.1715281170 0.4584829941
C -0.3448383087 -0.3405656930 -0.4959012067
C -0.6849379523 1.4508166688 0.3745048051
O -1.5412450931 1.4883075881 1.2025646077
C 0.9049910521 0.1810599989 -0.1139931904
O 0.7990787476 1.0949651339 0.8046002026
N 2.0847687069 0.0262000463 -0.7193660114
H -0.8963056015 -0.9885671150 1.4947205075
H -2.2308627607 -0.9171993245 0.3635169586
H -1.0528705648 -2.2378248476 0.2509119188
H -0.4244860208 -0.6431344960 -1.5396239407
H -0.5290633133 2.1453405127 -0.4547766435
H 2.2471054028 -0.7567189878 -1.3236251688
H 2.8381949118 0.6598846324 -0.5193998329
