16
0 1
C 2.2450376856 -0.3430656761 -0.0147975572
C 1.0260159023 0.2327448902 0.7175419723
C -0.1148572570 0.6651413454 -0.1486990416
O -0.6132927739 -0.5872283764 -0.9928826412
C -1.9293721831 -0.2829140208 0.0329990775
C -2.6928243105 0.8957507038 -0.2785688238
N -3.3669913114 1.7842667696 -0.5577220249
H 2.6620000487 0.3906175120 -0.7066877068
H 3.0266281552 -0.6329187245 0.6896182142
H 2.0023314212 -1.2362453368 -0.5995362928
H 1.3289427790 1.1250847025 1.2737190807
H 0.6864426341 -0.4829374097 1.4801130441
H 0.1958258206 1.3715467496 -0.9218020762
H -0.1305468546 -1.3883029547 -0.7407758751
H -1.7377953906 -0.3673079937 1.0961387019
H -2.4735923656 -1.1719311800 -0.3316740511
