11
0 1
N 2.9360216105 0.5395845719 0.2556270786
C 1.9543116486 -0.0658217469 0.0608144374
C 0.7009636745 -0.7913652929 -0.1595809159
C -0.4800038485 -0.0864990690 0.5034925594
C -1.3219544829 0.8507338178 -0.2534470683
O -1.7671295439 -0.4901843647 0.0314383785
H 0.7976926214 -1.8124487748 0.2396822597
H 0.5130741206 -0.8803767705 -1.2393010577
H -0.3964973496 0.0341006519 1.5881172138
H -1.8522454384 1.6473621967 0.2750909312
H -1.0842330123 1.0549147807 -1.3019338169
