10
0 1
C -1.6223099232 0.0574201722 -0.0014529646
C -0.1321677610 -0.0510639266 -0.1070067439
N 0.4502972366 -0.6175980031 -1.1455994975
O 1.8306510115 -0.5040723671 -0.8361167633
C 1.8881466679 0.1195308706 0.3574133483
N 0.7278299573 0.4274040695 0.8641163837
H -2.1063756885 -0.4033996561 -0.8702679448
H -1.9801260284 -0.4402909099 0.9104067645
H -1.9287263782 1.1111326970 0.0580054958
H 2.8727809059 0.3009370533 0.7705019218
