10
0 1
C 0.7869597998 1.0240610021 -0.1095379962
C 1.4818664629 -0.2966253992 -0.1218481891
N 0.6827479726 -1.3163368073 -0.0111493836
N -1.6623089719 -1.4981697658 0.2092546880
C -0.6278034078 -0.7442134003 0.0873699338
C -0.5306183843 0.7444869827 0.0203837305
H 1.2635905115 1.9967458126 -0.1912686013
H 2.5582702960 -0.4369719568 -0.2191186515
H -2.5081553264 -0.9078582254 0.2611457258
H -1.3751339523 1.4267527575 0.0707847436
