9
0 1
O -2.8837931187 -0.4766670988 -0.4681563189
C -1.8397165942 -0.0206095060 -0.1715354429
C -0.6239307560 0.2376722758 0.2023835301
N 0.5126985033 0.8540970317 0.1340465071
C 1.6410075852 0.2497823436 0.0224845228
N 1.7133060903 -1.1579062679 0.0024793720
O 0.6173925360 -1.6737964925 -0.0639443593
H -1.6629197624 1.1881681037 0.3180873079
H 2.5730605164 0.7947896105 0.0242538815
