11
0 1
O -1.7980965470 -0.5473862669 -0.2835618980
C -0.6496355248 0.9971869759 -0.0068448481
C 0.3337002765 0.0275979720 -0.0658079936
C 1.1706817864 -0.9992301945 0.4892013665
O 1.1328907345 -0.5504889432 -0.9565116868
H -1.8711188680 -0.6438957242 -1.2573749460
H -0.8970527237 1.5932014789 -0.8792577248
H -1.1080255319 1.2095680245 0.9514487106
H 0.7316436483 1.6472909453 0.3251526964
H 0.7541240250 -1.9927910897 0.6471967172
H 2.0978797247 -0.7332771781 0.9972296066
