12
0 1
C -1.8656545392 -1.0064083586 0.0005622980
C -0.0111679463 0.6591700397 -0.2482074563
C -0.9100425353 -0.1348634970 -0.7826639984
N 2.4864269721 -0.2230375705 0.6275525004
N 2.3296997777 1.0043159589 0.3887191846
C 0.9692768148 1.4178055227 0.2183708981
H -2.9087889288 -0.7463177299 -0.2352831898
H -1.7202154904 -2.0631645840 -0.2694291856
H -1.7088240863 -0.8974077997 1.0796246259
H -0.9886975388 -0.1752268637 -1.8752978454
H 3.5203144251 -0.3567040640 0.6693772631
H 0.8261840755 2.4817989460 0.4162819054
