16
0 1
C 1.5947453789 0.7357435861 -0.4324568276
C 1.1127924716 -0.1747651013 0.6502541264
C -0.0183984275 0.1975714451 1.5392106352
C -1.2905759346 -1.3258830204 -1.1233195236
C -0.2376858992 -0.5905557623 -1.4606825263
C -1.0491078239 0.9777465821 1.2470525949
N 0.9645194374 -0.5098966296 -0.7618840182
H 2.6565720752 0.8088232390 -0.6426241644
H 1.0286510017 1.6521891118 -0.5756333580
H 1.8625431898 -0.7886358542 1.1378452341
H 0.0300042711 -0.2466688854 2.5288773116
H -1.3226600239 -1.8867173835 -0.1983821768
H -2.1455896720 -1.3821482484 -1.7821719522
H -0.2248654286 -0.0377711499 -2.3960414000
H -1.8188874056 1.1738736630 1.9826913945
H -1.1757282101 1.4418444080 0.2766196504
