9
0 1
N 2.2801260196 -0.7377000101 0.1873047172
C 1.3575968774 -0.0413724461 -0.0445610329
C 0.7414965325 1.4110150660 -0.0703045242
C 0.0062828955 -0.4840804816 -0.6060425838
N -1.0710767153 -0.2853621466 0.1197966409
N -1.2472391287 0.7962065540 0.8938829751
N -0.2379164281 1.5737217217 0.6991575474
H 0.0356231146 -1.3230185455 -1.2846264886
H -1.8648931675 -0.9094097118 0.1053917488
