10
0 1
O -2.3741846976 0.9813792539 -1.0938004422
C -1.6993725779 -0.0041413927 -1.0238764971
C -0.3867002778 -0.0559916744 -0.3226786450
N 0.2244153142 -1.2074156341 -0.2966042963
O 1.3718596876 -1.0727015004 0.3669155627
C 1.4310448445 0.2672405599 0.7888712938
C 0.3518684510 1.0412115586 0.2983695048
H -2.0065448708 -0.9654000711 -1.4774299363
H 2.4241468185 0.5772919917 1.0869358279
H 0.7064953081 0.4332219086 1.6914516277
