17
0 1
C -2.1318052092 -0.5508225805 0.0302226354
C -0.7539952856 -0.0185439528 -0.1912228488
O -0.5195525172 1.1870345350 0.4463926893
C 0.3698503841 1.6971517723 -0.5268666951
C 1.6835096022 -0.2291206543 -0.3682184994
C 1.4526468575 -0.5968024051 1.0073566912
C 0.4362301279 -0.9177837338 -0.1600582435
H -2.8727126069 0.1604075742 -0.3361953705
H -2.3167584632 -0.7027210673 1.0991066906
H -2.2654233723 -1.5031474688 -0.4826974678
H -0.0268788567 0.7127072882 -1.2916446007
H -0.1563133675 2.4402268210 -1.1338109438
H 1.2661159495 2.1487306948 -0.1063801308
H 2.5267306754 -0.5831236114 -0.9493739176
H 0.9762178435 0.1242767770 1.6709144365
H 2.0814408584 -1.3266604358 1.5129022872
H 0.2611333800 -1.9254795530 -0.5187497120
