12
0 1
O -1.9689392901 0.9933551963 -0.4554520406
C -1.8453618019 -0.2436633233 0.1587380905
C -0.3831300780 -0.3314566536 0.0323891747
N -0.0949210943 0.8967660312 -0.5433614748
N 1.6567992282 0.4876862970 -0.6515523662
C 1.7318970755 -0.5633032460 0.0896769665
N 0.5555388002 -1.1483445369 0.4120574810
H -0.2277470382 1.1166138870 -1.5167626108
H -2.3482613138 -1.0690557248 -0.3711863470
H -2.1651637574 -0.2944845682 1.2120714398
H 2.4491739749 1.1060908591 -0.7603734461
H 2.6575682951 -0.9547362179 0.5043071331
