15
0 1
C 1.5090422667 -0.3093914867 -0.7197586847
C 0.7697560417 0.5019299612 0.1247260905
C -0.4859802027 1.2206825091 -0.3297987652
N -1.4143615615 0.8242497642 0.7185478884
C -0.9087561120 -0.4453083909 1.1575342526
C -0.8201840251 -1.5193840067 0.3278422236
N -0.3380885949 -2.1984974407 -0.5222632566
H 1.3505117437 -0.2083361515 -1.7911358011
H 2.5098992978 -0.6043533184 -0.4243469691
H 0.7168736985 -1.5072312340 -0.6925916060
H 1.1846472026 0.8307844136 1.0705297422
H -0.7674802004 0.8563778589 -1.3271594455
H -0.3668396292 2.3072147629 -0.3913265995
H -2.3963347885 0.8504808602 0.4822229695
H -0.8413711368 -0.6232181009 2.2255459611
