12
0 1
O -1.5844982233 1.1615383949 0.0729682784
C -1.2649415088 0.0396139787 -0.6208033713
C 0.1390848146 0.1615010991 -1.1753777247
C 0.5096871646 -0.7285676647 0.0071474524
C 1.1097249253 -0.0945257532 1.1977933497
O 1.8375966893 -0.6719839806 1.9962107217
H -2.4240548379 0.9792117056 0.5403584134
H -0.7825056586 -0.9808262881 0.2222258936
H 0.2865209084 -0.3158769415 -2.1470631344
H 0.5689477649 1.1695343568 -1.1465270802
H 0.8427456114 -1.7456879416 -0.2166514927
H 0.8281853502 0.9779650347 1.3311536940
