11
0 1
O 2.9121999009 -0.1659717855 0.2677042241
C 1.7674144111 -0.4048939267 0.4472154794
N 0.6623049273 -0.8831839125 0.6785025423
C -0.6396664938 -0.2964003522 0.7111266382
C -0.6858170862 1.1637691504 0.2839672348
O 0.2936057139 1.8031177498 -0.0411805358
H 0.1414240662 -0.8767232806 -2.2054083485
H -1.3300174588 -0.8602266527 0.0593855014
H -1.0716908606 -0.3639293360 1.7262311640
H -1.7081070375 1.6101580260 0.2955971582
H -0.3763840825 -0.6980976801 -2.7113070580
