10
0 1
O 1.7581492184 0.1547351452 1.6542848046
C 1.4084786474 -0.2950530355 0.5555465211
C 0.6001945570 0.5567902569 -0.3241892269
C -1.1142315135 -0.1143569083 -0.6255261714
N -0.6434004227 1.0826444046 0.1393271869
H 1.8640617337 -1.2085755207 0.1057762344
H -0.1564823950 -0.3548018249 -1.2825404185
H -1.8430045969 0.1487690625 -1.3999120277
H -1.3588301937 -0.9909256153 -0.0223326071
H -0.7521770347 0.8723230355 1.1456397045
