12
0 1
O 3.0836561803 0.0411152950 0.0369245817
C 2.0398454113 -0.0199261482 -0.5493807817
C 0.7238351242 -0.1296500175 0.1362855279
C -0.4508866305 0.5160192842 -0.4374093153
N -0.3541216082 -0.8109783952 -0.6152896468
C -1.8327592186 -0.3794412811 0.6268283403
O -2.9330442508 -0.4646367816 0.2187157228
H 1.9843825972 -0.0127597594 -1.6564418687
H 0.7854307692 -0.2388801061 1.2224398566
H -0.7363031713 1.3243361371 -1.1006481126
H -1.2420885940 0.7925313429 0.6498987632
H -1.2263976089 -0.8940485701 1.3724349325
