8
0 1
O 2.5687477784 0.0931590830 0.2089622927
C 1.5831060915 -0.5267639134 0.3835724196
N -0.1706430836 0.9310416340 -0.0452340563
C -1.0965269987 0.0575340768 0.1940362196
N -1.2059973355 -1.1676995074 0.5450483413
O 0.8445753473 -1.4418340410 0.6449697597
H -0.4697303095 1.8641702920 -0.3244775107
H -2.2179654899 0.2184383760 0.1345375341
