14
0 1
O 1.6932455441 1.0822677633 0.7150284629
C 1.7807623321 -0.1342973677 -0.0129046313
C 0.4996237092 -0.9974180499 0.0829173854
C -0.6539693932 -0.4314607901 -0.6643279914
C -2.1535220295 0.9879871020 -0.0215225684
O -0.8896172300 0.9180229182 -0.5667598899
H 0.9192710541 1.5584332741 0.3598381159
H 2.0176294947 0.0337287641 -1.0798608987
H 2.6153124751 -0.6919829882 0.4323996896
H 0.6931820605 -2.0121112646 -0.2992195756
H 0.2586663457 -1.1072441694 1.1603100687
H -1.4892436736 -1.0284401645 -1.0335713849
H -2.4064716708 0.2662869604 0.7512907477
H -2.9027150186 1.5168290123 -0.6097685302
