12
0 1
C -1.5382216923 -0.3400584389 -0.4165646374
C -0.1301642557 0.0773460423 -0.1804117147
C 0.4230908194 1.3461216337 -0.0468893346
O 1.6225028380 1.5457536466 0.2334446416
C 1.4401127669 -0.6798741996 1.0021568246
O 1.8621685146 -0.6588330086 2.0624523037
N 0.8973944508 -0.9730944585 -0.1148779605
H -1.6717119471 -0.8579416822 -1.3727406484
H -1.9273747187 -0.9934278807 0.3697742765
H -2.1655687924 0.5529524979 -0.4361790734
H -0.2679237070 2.1955934312 -0.1785185854
H 1.4894667237 -1.2161215833 -0.9069750921
