10
0 1
N 2.3201540195 -0.0637823434 -1.5866760081
C 1.3767679771 -0.0425860502 -0.9327903880
C 0.1899890928 0.0142803243 -0.0961592850
C -0.0067450591 1.3230753426 0.6233979801
O -0.9332862380 1.5234422766 1.3555259832
C -1.0250857189 -0.8069371361 -0.4577669843
C -0.3514816609 -1.2498515370 0.5283795609
H 0.7639511378 2.0941619516 0.4312750646
H -1.8504602382 -0.8225681367 -1.1450868726
H -0.1565163120 -1.9369386918 1.3307059493
