16
0 1
C 0.0262512446 1.0651911937 1.1609971407
C -0.5797387882 -0.0129898748 0.5449445087
C 0.6960526228 -1.0357461383 -0.7829189669
C 1.6850112556 -0.1309624336 -0.9422370689
C 2.1542155394 0.9682245630 -0.5428746020
C -1.4959261268 -1.0902849438 0.9133181827
N -1.8140184318 -0.1216447444 -0.1573403691
H 0.5113681127 0.9171616932 2.1182166874
H -0.3493049062 2.0621181251 0.9578158215
H 1.2902592923 1.2617456114 0.3144173747
H -0.0646608822 -1.1390800526 -1.5493025121
H 0.9272228057 -1.9411511740 -0.2295883361
H 2.9881617866 1.6240944686 -0.7113880887
H -1.3482130646 -2.1080949671 0.5713768411
H -2.0193098750 -0.9999660550 1.8595393134
H -2.4770215850 0.5800317286 0.1493680738
