14
0 1
C -1.5550120014 -0.8822583863 -0.2984725771
N -1.8281223362 0.5527279394 -0.0774585203
C -0.5044743208 0.1202103887 -0.1497962411
C 0.6463517581 0.3159926013 0.8127180203
C 1.7017973465 -0.2773051227 -0.1083323798
C 1.2074420723 0.9618041751 -0.8755391461
O 1.0070152774 1.6421105782 0.3702271881
H -1.7044849212 -1.5783640023 0.5223273144
H -1.8486165179 -1.2494257760 -1.2743071677
H -2.1324529690 0.8048038681 0.8558575483
H 0.5408915690 0.1836723415 1.9019910878
H 1.5441522032 -1.2689211509 -0.5283504644
H 2.7220061308 -0.1231258909 0.2369363001
H 0.1562577091 0.7893024368 -1.3810899627
