10
0 1
N 1.9568134013 -0.2523512543 -0.4669869629
C 0.7008392929 -0.0034264888 -0.7600960262
N -0.1469782346 -1.1166664378 -0.7974413644
N -1.0827825357 -0.6905093418 0.0152062278
C -0.9880643740 0.7132440819 0.2283181959
N 0.0408927922 1.1840528628 -0.4017047721
H 2.3866446343 0.6502366682 -0.2186352864
H 0.6646878504 -0.3704669625 1.5749362376
H -1.8701723572 -1.2963881652 0.2486755266
H -1.7609114696 1.2467390375 0.7742572242
