12
0 1
O 1.1010613503 2.1282532810 -0.5327617481
C 0.5134297341 1.1357708253 -0.2403732499
C 1.0115990211 -0.2198266861 0.1865542510
C 2.1925110741 -0.8588701439 0.0935772319
C -0.9425324047 0.7616969708 -0.4632896271
C -0.8008483040 -0.6558881205 -0.0965754707
N -1.6035446133 0.1980682506 0.7034392078
H 2.1047455848 -1.9511031424 0.1339453486
H -1.5557033224 1.1778525765 -1.2512451514
H 0.3673610946 -0.7354450942 0.9651626347
H -1.1273096724 -1.5836778347 -0.5433748970
H -1.2123025422 0.4758331176 1.5984174701
