12
0 1
O 0.3327217769 -0.0650531837 1.9007622437
C 0.5556470191 0.2148646534 0.7384031175
C 1.8853306942 0.0764082859 0.1600541699
C 2.9670310697 -0.0569599134 -0.3360468047
C -0.4408509882 0.7468348391 -0.1975201299
C -1.3605625511 -0.2108982134 -0.8228014025
N -1.9672013525 0.3741485259 0.3739281496
H 3.9340091693 -0.1728347362 -0.7675634967
H -1.4032077801 1.4448991751 0.3157222928
H -1.1297252049 -1.2649166127 -0.7007726722
H -1.8612539558 0.0295390235 -1.7542926127
H -1.7680778967 -0.1610008434 1.2196251453
