14
0 1
O -2.0512251691 -0.7406346046 1.3870847777
C -1.3767658341 -0.3078668911 -0.2961221385
C -0.0665194849 0.0068557477 0.1606652255
C 1.2444133473 -0.5343588306 -0.4104473169
C 1.6419493753 0.9590798971 -0.4616402879
O 0.3849538206 1.3846564077 0.1293943288
H -2.5282365859 0.0649916908 1.6910742367
H -1.5696484660 -1.2869482172 -0.7383697550
H -2.0723450287 0.4804202025 -0.5977155718
H -0.8441764131 -0.4465452685 1.3651897927
H 1.8431792554 -1.1536434909 0.2693975918
H 1.1712712941 -1.0349831278 -1.3861580606
H 1.7679048779 1.3664569021 -1.4777168067
H 2.5012750113 1.2465815828 0.1622579844
