10
0 1
O 1.2228557473 0.3094155666 1.2976429396
C 0.9432338342 -0.6328935110 0.6369379957
O -1.1292926660 0.8564642848 -0.8482581779
C -0.8194830540 1.9768405267 -0.5523492912
C 0.1825106736 -1.8006483269 0.2755055143
O 1.3897239044 -1.2535780463 -0.4372334210
H -0.0288804234 2.1813831623 0.1901707650
H -1.3151975589 2.8506945613 -1.0140127040
H 0.3644772544 -2.7513081978 0.7636515686
H -0.7376967116 -1.6870990198 -0.2838391892
