8
0 1
O -2.7645491181 0.0752339955 0.8258665813
C -2.0208245617 -0.4084509451 -0.0140782135
C -0.6006692325 -0.1241962979 -0.0736993533
C 0.6006613785 0.1227553618 -0.1209429891
C 2.0206460467 0.4087670382 -0.1736013036
O 2.8666103138 -0.3077236508 0.3397777490
H -2.3785988370 -1.1079828587 -0.8021178179
H 2.2767240103 1.3415973569 -0.7236670419
