14
0 1
O 0.7587206186 1.9136448728 1.4200765585
C 1.2771927229 1.2441377285 0.5509858796
C 0.6918976272 0.8697198253 -0.7142510528
C 0.2022395354 -0.4344616941 -1.1005634371
C -0.1677438748 -1.3279689811 0.1004295523
C -1.1965929848 -0.2596432342 0.5079268037
N -0.9171506094 0.4938400295 -0.7560945841
H 2.3373216568 0.9241200298 0.6401385283
H -0.4089316197 1.5434958639 -0.9999627470
H 0.2982371673 -0.8290047683 -2.1073699848
H 0.6434124147 -1.5458676287 0.7929567880
H -0.6400307963 -2.2607544987 -0.2011265170
H -1.0015955499 0.3204376850 1.4072395619
H -2.2303663081 -0.6007892299 0.4963356504
