14
0 1
C -1.9095119174 -0.2098951627 -0.3847213433
C -0.4374140851 -0.0990125140 -0.1989868134
C 0.4724673626 -0.9894100278 -0.5933774607
C 1.8111587414 -0.7122957558 -0.1268339296
N 2.8698985769 -0.8857981046 0.3953276145
O 1.5238836573 1.0730222491 0.2990172250
C 0.1579846676 1.0936839793 0.5273073888
H -2.4165055874 -0.1794702682 0.5831209675
H -2.2801626003 0.6389281419 -0.9646490357
H -2.1919599387 -1.1302464602 -0.8934028719
H 0.2717703301 -1.9298969052 -1.0860442063
H 2.4769638139 0.2948485803 0.7650858511
H -0.1106049265 1.0219011802 1.5936420251
H -0.2891160941 2.0200560678 0.1442215891
