16
0 1
C 1.7544729649 -0.0975958012 -1.5011300001
N -0.0604174292 0.2145967258 -1.1641081756
C 0.8188882859 -0.6352234801 -0.0314724668
C -0.6451158969 -0.7258839233 -0.3134803994
C -1.5225938578 -0.2205917145 0.8116884377
O -2.3494197358 -0.9598893402 1.2849951151
C -1.3761053136 1.2113294802 1.2525404699
H 2.6837465641 -0.1587668596 -0.9254988223
H 1.7229175519 0.8774657943 -1.9671151266
H 1.7208293097 -0.8960325465 -2.2344038840
H 1.2715537289 -1.6183428113 -0.1282273963
H 1.1279469754 -0.0621195259 0.8324646571
H -1.0154607308 -1.6846935547 -0.6954105277
H -1.7009293419 1.3044721987 2.2869231227
H -0.3665459608 1.5947283893 1.1153529884
H -2.0293491142 1.8214949689 0.6241880080
