11
0 1
N 1.7852762196 -0.2196397823 -0.7112190663
C 0.4902285727 -0.1138066213 -0.3013272029
C 0.1195510782 0.8907521787 0.6593241799
N -1.0765818380 1.0020426895 1.1346101433
C -2.0438769371 0.2751425529 0.4641569254
N -1.6638756326 -0.6317028334 -0.4488585620
N -0.3883906621 -0.9683743020 -0.7530468179
H 2.5059229948 0.1886394180 -0.1443486343
H 2.0268176663 -1.0595986349 -1.2091364314
H 0.9020787790 1.5202637684 1.0835498778
H -2.6400772408 -0.9152584337 0.1970725886
