19
0 1
C 2.3955172601 -0.0197799738 -0.3041025957
C 1.0835360925 -0.3176948533 0.4227145304
O 1.3084936651 -0.6593814709 1.7794998598
C 0.2549247573 0.9329005146 0.3124411494
C -0.5588388971 1.0095504809 -0.9188897479
C -1.5545899171 0.4876232577 0.1071710591
C -2.1412712091 -0.8904494127 -0.0895748207
H 2.2387926174 0.1025007238 -1.3777175022
H 3.0855972468 -0.8473368476 -0.1409737860
H 2.8467630736 0.8946594960 0.0862727463
H 0.6405228628 -1.2154810643 -0.0274077026
H 1.3842917609 0.1761765017 2.2520237459
H -0.9041413187 0.5466233949 1.1025411047
H -0.3602204523 0.2832463306 -1.7100113127
H -0.7741256213 1.9959000168 -1.3183679538
H -2.2755307812 1.2530723823 0.3852454560
H -1.3701986803 -1.6345394005 -0.2887258740
H -2.8215443341 -0.8855246981 -0.9433640873
H -2.6987301254 -1.2109273779 0.7910297314
