19
0 1
C 2.3810866502 -0.0722305924 -0.0874310105
C 0.9439326375 -0.2687415394 0.3524832232
O 0.9627616645 -0.5963045788 1.7357710302
C 0.0996070297 0.9564432704 0.1059538599
C -0.6451647072 1.1195011600 -1.1868206348
C -1.3965966568 1.0307949266 0.0988660310
C -2.0900989834 -1.0557571942 0.1245824118
H 2.4303193319 0.1052585845 -1.1630500101
H 2.9701298169 -0.9593107445 0.1482388705
H 2.8235156497 0.7801333202 0.4311684230
H 0.5188497745 -1.1081173765 -0.2137941388
H 0.1325441130 -0.3120437617 2.1232704500
H 0.5305059016 1.8491486736 0.5575338834
H -0.6006445845 0.2717162417 -1.8612520685
H -0.6786823729 2.0764138154 -1.6958181616
H -2.2231796288 0.1899480872 0.4245329044
H -1.8685387805 -1.2824761696 -0.9097266537
H -3.1411776851 -1.2448956051 0.3481855933
H -1.4395331700 -1.5651095175 0.8272179970
