16
0 1
C 2.0710747880 0.0024500787 -0.2426624578
O 1.5651573372 -0.4848668890 0.8770262501
C 0.5222317164 0.0918798685 1.4227233175
C -0.7409263972 -0.0732392112 -0.2915589742
N -1.5427175480 0.9220364594 -0.3704836723
O -0.8146631865 2.1185387682 -0.3726873637
C -1.3478457678 -1.4435215179 -0.3557986385
H 2.0763429162 1.0804835368 -0.3663751579
H 2.8629855103 -0.6043225890 -0.6560667630
H 0.3382286691 0.0222026545 -0.7117078269
H 0.4644199830 1.1754187610 1.3944226563
H 0.1266547569 -0.4502341757 2.2709444489
H -1.4981500919 2.7861145768 -0.4548578533
H -2.3779245430 -1.4233013942 -0.0013981468
H -0.7745001715 -2.1537595994 0.2413611530
H -1.3438149712 -1.8057183276 -1.3864769714
