14
0 1
O 1.7770507413 1.0493621246 -1.6305312281
C 1.1586512297 0.5120453831 -0.6577642477
C 1.4183308086 -0.6169770438 0.3027289944
N 0.0202359095 -1.0358666829 0.0034577606
C -0.9786735741 -0.4677889620 0.9608663767
C -1.4293348435 0.5909836341 -0.0584122023
C -0.2131069320 0.2167178825 -0.8910899198
H 2.1798678769 -1.3224319094 -0.0302215034
H 1.5796925706 -0.3457009418 1.3448134418
H -0.5145731244 -0.0357090367 1.8526172675
H -1.7185143687 -1.2062308380 1.2711662728
H -1.4939928693 1.6261917456 0.2724592572
H -2.3542953020 0.3223780691 -0.5666831722
H 0.6178128771 0.8195815755 -2.0696420978
