12
0 1
O 1.2167317100 0.4629646300 -1.5107793321
C 1.5284746835 0.1879988198 -0.3228461716
C 0.5676131405 -0.6661769663 0.4090644911
O 1.2983745799 -1.6881310095 0.3284544983
N -0.5338817633 -0.4344800281 1.2077830812
C -0.9430101172 -0.3309633773 -0.3239607015
C -1.1550263208 0.7536357129 0.6530427067
H 2.5181587204 0.4153467404 0.0533827269
H -1.7100554958 -1.0573147160 -0.5580216640
H 0.1588109556 0.1598985198 -1.4133142296
H -0.5572619766 1.6599333505 0.5613295684
H -2.1468001163 0.9139263238 1.0563280262
