19
0 1
C 1.3472349421 -0.9648524806 -0.0964961078
C 1.1540490710 -0.0924569561 1.0029962175
O 2.1397771533 0.9075340660 1.0775572639
C -0.3084220992 0.7928612973 0.9600309511
C -0.4939301347 1.5422189776 -0.3438251665
C -1.3902803841 0.5135643687 0.1405758662
C -1.1581934545 -1.4045150127 -1.2383158907
H -0.1608291679 -0.9613905362 -0.7344274803
H 1.2536338966 -2.0317227793 0.0564537957
H 2.0163504304 -0.6445676927 -0.8852530488
H 1.0274522506 -0.6178503394 1.9546004021
H 1.7467557664 1.7038211906 1.4457337340
H -0.4325966644 1.2005207226 1.9574537420
H 0.2539528905 1.2491184825 -1.0924123002
H -0.8060233368 2.5807251616 -0.4018913111
H -2.4519104568 0.3978004719 0.2692931851
H -0.6496419457 -2.1875340999 -1.8094596125
H -1.6913878514 -0.7649256540 -1.9344583576
H -1.8488589054 -1.8853201880 -0.5509258821
