15
0 1
C -1.4558263014 -0.4787700623 -0.7118359623
O -0.8456149129 -1.7072914224 -0.2866702750
C -0.0405141373 -1.0050901320 0.6823297788
C 1.3718659185 -0.7631858270 0.2381375909
C 1.5526000576 0.4902394791 -0.1581967230
C 0.3113142703 1.3372524584 -0.0352336191
C -0.7570510150 0.3282626023 0.3924704939
H -1.1613040107 -0.2074945510 -1.7316419255
H -2.5457049922 -0.5342222732 -0.6536849432
H -0.1275116021 -1.4680499184 1.6686600369
H 2.1272758594 -1.5386407305 0.2331111547
H 2.4884104214 0.8881782342 -0.5335281663
H 0.4491429633 2.1284869699 0.7075207342
H 0.0609551272 1.8351086139 -0.9772423680
H -1.4280376462 0.6952165589 1.1658041928
