12
0 1
C -1.5297790989 -0.4052116313 -0.1801289630
C -0.1141433569 -0.3287003831 0.4336688976
C 0.9289739936 -1.0530333188 -0.4107787112
N 1.7954682572 -0.0905651104 -0.6202692259
N 1.5534260561 1.2542334597 -0.0529475652
C 0.4337598087 1.0806187575 0.5588907466
H -1.5409682041 0.0515128862 -1.1779023259
H -1.8328708165 -1.4541825135 -0.2783857955
H -2.2586498970 0.1188671046 0.4523682896
H -0.1401654340 -0.8105841989 1.4277044552
H 2.6582863319 -0.1564710775 -1.1560351508
H -0.0309106401 1.9105100256 1.0883043485
