15
0 1
C -1.4896815356 0.2877818355 -0.9159961429
C -1.7796143111 0.0680197261 0.5544618306
C -0.4067902662 -0.0644736708 0.0189796796
C 0.6679232819 -1.0602600096 0.0424985426
C 2.4256683874 0.1667454337 -0.5250359621
O 1.5799238278 1.2954044725 -0.5472038451
C 0.8570774499 0.5771065792 0.3719319777
H -1.8165072469 -0.4701870069 -1.6160420945
H -1.5163783105 1.3017314066 -1.2928812368
H -2.0094208079 0.9364818998 1.1589475046
H -2.3000443884 -0.8373755307 0.8394942887
H 0.8048182805 -1.6565423488 0.9357494722
H 0.9441129430 -1.5328922138 -0.8848361896
H 2.9578584447 0.2216917442 0.4570931277
H 1.0701522515 0.7875626831 1.4157670476
