13
0 1
C 0.6143488982 -0.8765464673 0.3056491567
C -0.9091234217 -0.9869874771 0.0483991727
O -1.4727900976 0.3314044011 0.2462387187
C -0.5345525182 1.2487476258 -0.2687545713
N 0.2618326874 0.9518706921 -1.3748826244
C 0.9974588387 0.4796910923 -0.3029170180
H 0.8814683272 -0.9386646810 1.3710163653
H 1.1462879522 -1.6692434696 -0.2392633913
H -1.0869434194 -1.3119762838 -0.9831613989
H -1.4208250264 -1.6575236708 0.7458683913
H -0.8828416966 2.2823440280 -0.1446265560
H 0.3163075523 1.3288362634 0.7453517009
H 2.0089179240 0.8780799468 -0.0817799457
