15
0 1
C -1.9351851975 -0.4359067895 -0.6345252530
N -0.9043717781 0.0863055470 0.2236151687
C 0.2318054668 -0.5692680793 0.6771651670
C 1.1342276655 0.3536484006 1.2724812205
C 1.6235976300 -0.4645040742 -0.3947094788
C 0.4358966789 1.5860860398 0.9035443381
N -0.7236124144 1.4100428642 0.3309490870
H -1.6459618181 -0.3972942969 -1.6902677432
H -2.8416313235 0.1502015133 -0.4979991194
H -2.1370981262 -1.4716777431 -0.3615369084
H 0.1519468004 -1.6302839104 0.8759627827
H 2.3408816669 0.3463799568 -0.4369589808
H 1.0665827550 -0.4765034318 -1.3344759907
H 2.1529157597 -1.3938951858 -0.2223705889
H 0.7551182347 2.5946081891 1.1268132990
