20
0 1
C -1.3761642950 1.7061657962 0.7275175060
C -0.5938717415 0.4717716001 0.4671527315
N -0.6683337363 -0.4963335834 -0.4465325503
C -1.1981806546 -1.7181600437 -0.4554849638
C 0.6614522138 0.0761991175 -0.2281460014
C 1.6892363389 -0.7481457184 0.5174050238
C 1.2122462038 0.8594432906 -1.3996680950
H -2.4262301365 1.4625864483 0.8971226822
H -0.9983679461 2.1987399514 1.6236848553
H -1.3140221432 2.4196902182 -0.1011950505
H -0.9074425340 -0.7410537238 1.6150253829
H -0.6462614660 -2.4954824535 -0.9715109023
H -1.1053639897 -1.5633820575 1.3938344540
H -2.2791745028 -1.7877321772 -0.4567780205
H 2.3758369966 -0.0894375445 1.0524950068
H 1.2182536229 -1.4103515305 1.2414676870
H 2.2814039585 -1.3523118748 -0.1752143982
H 0.4171114453 1.3872643882 -1.9270842276
H 1.7232498690 0.2041237821 -2.1097528916
H 1.9382114968 1.5961321150 -1.0477032284
