14
0 1
C -1.2569983360 -0.3975063602 0.5866820534
C -0.5397044156 0.9041992728 0.2120559675
C 1.0507246499 0.7243578173 0.1988786679
C 1.6330714280 -0.2815574477 0.9949373688
C -0.6224094198 -1.0523360106 -0.6869642627
C 0.0534414271 0.2916917106 -0.9784882531
H -2.3468671336 -0.2931641134 0.5092560985
H -0.9765461692 -0.8407395950 1.5464146812
H -0.8576459476 1.9293535911 0.4002240934
H 1.4972211546 1.6923703557 -0.0753823988
H 0.0475755760 -1.8986126603 -0.5103144848
H 2.6435456119 0.0743631359 1.3056056383
H -1.3698533259 -1.3003973538 -1.4515859350
H 0.3151769001 0.7214726575 -1.9450782346
