12
0 1
N -1.5626041274 0.2750068413 0.8830771087
C -0.2652038460 -0.0450666477 -0.9738896425
C 0.0533420787 1.2274174828 -1.2362375935
N 0.4137038213 0.7617806115 0.0540564406
C 1.3202719510 -0.1040304709 0.5701699379
N 1.1612089474 -1.3434543656 0.1486701656
C 0.1915428794 -1.3405907405 -0.7876533678
H -1.3581852188 1.0443640713 1.5193048829
H -1.4966405582 -0.5596820869 1.4690348387
H -0.3136139697 2.1957662640 -1.5244901433
H 1.9938991139 0.1879386539 1.3598570098
H -0.0830170715 -2.2227846134 -1.3418156371
