15
0 1
O -0.0512492988 -0.6147114641 -1.4410982355
C -0.3015975127 -0.0255274410 -0.1844933111
C 0.8113201147 -0.3272308258 0.8021802271
C 2.1350007286 0.2330470748 0.3647566314
O 2.3478134077 0.7100469090 -0.7198846960
C -1.7185567984 -0.3668757595 0.2770104495
C -0.9323071483 1.2976041972 -0.0963236258
H 0.7315790180 -0.1709424197 -1.7879637897
H 0.5789718960 0.0879419950 1.7864548643
H 0.9469989245 -1.4085578100 0.9305526050
H 2.9495217287 0.1749498121 1.1133477652
H -1.7784891296 -0.7464065139 1.2917158405
H -2.2296414586 -0.9569987563 -0.4755238709
H -1.3723529882 1.4811442419 -1.0892747571
H -2.2542104836 0.6520247603 0.3785619031
