17
0 1
C 2.2153372289 0.5224010383 -0.9563412487
C 1.0727242726 -0.2673921257 -0.6685675900
C 0.6474266859 -0.2303867072 1.4661763512
O -0.6963915875 0.1359808160 1.2787732254
C -1.1146490960 -0.2906693249 0.0251088653
C -2.4626587308 0.2803125269 -0.3044742253
O -0.1590707511 0.1953543858 -0.9137594158
H 3.1209903186 0.0223983669 -1.2616756546
H 1.7361651379 0.2604513924 0.3733001802
H 2.0668685093 1.5694023039 -1.1737195772
H 1.1906693030 -1.3500658454 -0.6332117929
H 1.1011068587 0.4609237420 2.1816507669
H 0.7502617921 -1.2695291508 1.8040132578
H -1.1046537738 -1.3934998828 -0.0268464598
H -2.4072534058 1.3685350889 -0.3001817074
H -2.7920439399 -0.0616178380 -1.2849571044
H -3.1831718220 -0.0416747862 0.4464391291
