17
0 1
C -2.2241178166 -0.6770961913 -0.5448404171
C -1.1359432292 0.3771603454 -0.6860401512
C 0.0095657174 0.1749897470 0.2763689798
O 0.7427310085 -1.0567208005 -0.0491607858
C 1.2202966120 1.0875802847 0.0943364664
C 2.1203990736 -0.1365573700 -0.1339087427
O 2.6864866063 -0.7029277809 0.8952594191
H -3.0188794765 -0.5187375833 -1.2748340710
H -1.8153925822 -1.6765425339 -0.7007265792
H -2.6746550399 -0.6481927117 0.4500968875
H -0.7350283465 0.3772993835 -1.7044023334
H -1.5453301470 1.3771528284 -0.5089279881
H -0.3596659444 0.1065020282 1.3027541430
H 1.5132304565 -1.2681426179 0.8336592381
H 1.5280420308 1.6538674651 0.9703943949
H 1.1377636592 1.7445613686 -0.7718677818
H 2.5796864181 -0.2631518613 -1.1220436787
