19
0 1
C -0.6818021258 -1.9552675225 -0.4006435602
C -0.7320055909 -0.4835915112 -0.7650295486
C -1.4479910047 0.4076655584 0.2614714759
C -0.1009488601 2.2763955666 1.3476494209
O -0.1683763167 0.8526874876 0.7800669834
C 0.5180570073 0.3537319802 -0.4405057060
C 1.8515463170 -0.2507357040 -0.1282128758
H -1.6665885812 -2.4083551410 -0.5278474428
H 0.0190169929 -2.5018972118 -1.0343341510
H -0.3844689911 -2.1011798526 0.6397777242
H -1.0826454300 -0.3497786834 -1.7874118263
H -2.0306934754 -0.0655976724 1.0500147547
H -1.9779919093 1.2659311613 -0.1498974172
H 0.8258218202 2.2242449574 1.9336060566
H 0.1236789439 2.8709925189 0.4442789027
H 0.6124645760 1.2133657349 -1.1091624607
H 1.7628631109 -1.0938199853 0.5559465876
H 2.3289775228 -0.5920353530 -1.0486175351
H 2.4923699947 0.5059196718 0.3279596178
