10
0 1
O 2.5896129867 0.0111189547 -0.3327747274
C 1.4349626460 0.0987850177 -0.1144260958
O 0.7729438511 1.2630702310 0.1388689257
C -0.5476544474 1.3543517664 -0.1699269356
C -0.7364935646 -0.7958718865 0.3125595982
O 0.6114332655 -0.9665781996 0.0045249114
H -1.1060352275 0.3536585481 0.5507483556
H -0.6860966062 0.9839111473 -1.2042719398
H -0.9542794599 -1.2415507762 1.2853114946
H -1.3691284437 -1.1958238030 -0.4746875872
