14
0 1
C -1.4370602946 -1.0810834391 -0.4742899586
C -0.5873848146 0.1584086173 -0.5954015542
N -0.8379430638 1.2758012067 0.1209866078
O -1.0822499486 0.9045680916 1.3581091773
C 0.7917494620 0.0204028387 -0.7318954997
C 1.7052119629 0.8243760740 0.1188888967
O 1.2425683139 -0.0123131609 1.1464751609
H -2.4753160544 -0.8126326358 -0.2849470026
H -1.3856295746 -1.6258114338 -1.4193768584
H -1.0989072365 -1.7500178608 0.3195577550
H -0.1181353643 0.3389969050 1.4846619559
H 1.1867482784 -0.9279223732 -1.0773009035
H 2.7653253618 0.6799253309 -0.0885493212
H 1.4684359725 1.8834168392 0.2318235448
