10
0 1
N -1.1073501742 1.0951381443 -0.6624320454
C -0.2256750530 0.3181696073 -0.1843282352
O 1.0787564081 0.6478651806 -0.2480632066
C 1.9448761934 -0.2679806288 0.2999903540
O 3.1108082060 -0.0807753946 0.2971860586
C -1.6694731190 -0.8981016419 0.3317688540
O -1.6148668426 -1.9134683622 0.8664501727
H -0.8939745658 1.9776022039 -1.1058742651
H 1.4196877019 -1.1414359753 0.7128293577
H -2.0576837548 0.2580278666 -0.3042170447
