12
0 1
O -1.9960250758 0.0915331607 0.4440170535
C -1.4358096975 -0.1333097282 -0.7246804794
C 0.0122224751 0.0347455815 -0.9538599304
C 0.7043397172 -0.5489217217 0.2437111790
C 1.4599498686 0.2959782206 1.0945173449
O 2.0935719388 -0.0231358069 2.1164034101
H -1.2342069197 0.2961055132 1.0664848170
H -2.1443984171 -0.5348182160 -1.4522544741
H 0.2744789650 -0.3799561845 -1.9405365075
H 0.2443825090 1.1244891879 -0.9842350374
H 0.6160738201 -1.6164073115 0.4428023620
H 1.5076928164 1.3568873049 0.7075522622
