10
0 1
N -1.7412312451 0.1592068433 0.3554363785
C -0.4981474874 0.5939171808 0.0444175552
O -0.1544895075 1.7615008668 -0.1536887363
C 0.4989219079 -0.5929402779 -0.0420247974
O 0.1547035921 -1.7602171044 0.1572796575
N 1.7413886599 -0.1594829258 -0.3559677230
H -1.8748328284 -0.8386878308 0.4895890175
H -2.5096349218 0.8120159661 0.4470085518
H 2.5085139344 -0.8134123223 -0.4499900627
H 1.8748078957 0.8380996042 -0.4920598411
