14
0 1
C -1.6468074630 -0.2299188493 0.2431329302
C -0.6591053615 0.5292655939 -0.6282379584
C 0.4470179293 1.2827841344 0.0558069331
O 1.7252831558 0.5903065426 0.0012357296
C 1.7001293312 -0.7027783919 0.2641288832
N 0.6211278590 -1.4018195741 0.2970671100
C -0.5562356534 -0.9446505819 -0.4560602712
H -1.5733750521 -0.0625414151 1.3146075603
H -2.6567207354 -0.3535194424 -0.1271835101
H -0.9971467448 0.9280917357 -1.5765040121
H 0.2285706968 1.4352527260 1.1154896823
H 0.6501756205 2.2458731237 -0.4053162086
H 2.6751722626 -1.1391828763 0.4446373869
H 0.2055691548 -2.1680737257 -0.4342172552
