15
0 1
C -1.5441951054 0.1723976456 0.8086669316
C -1.1246752568 -0.0814393192 -0.6010417892
O -0.2326229596 0.8126735735 -1.2441112113
C 1.0652578217 0.7874827892 -0.9698501054
C 1.5346527835 -0.4090155073 -0.2009838176
O 0.7053053084 -0.8555852263 0.8624801357
C -0.6266129918 -0.9749352438 0.4829163688
H -1.0668880504 1.0033257970 1.3150387433
H -2.5729153456 -0.0173822602 1.0835201032
H -1.8459182612 -0.4523045629 -1.3156439859
H 1.1693390282 1.8089595329 0.4888839300
H 1.4387441870 1.9046837923 -0.3324923858
H 1.6489301268 -1.2034423262 -0.9538912147
H 2.5121420874 -0.2044860778 0.2303582907
H -1.0082063720 -1.9898466068 0.5369610066
