10
0 1
O 2.1716876621 0.4166673003 0.9963705611
C 1.4694457892 -0.1941695264 0.1196598761
C 0.0074610276 0.0810405411 -0.0796957060
C -1.3986016127 -0.2367472048 -0.4180035695
N -0.9096021689 0.9316418857 0.3632082371
H 1.5125880987 -1.3255623279 0.0446874117
H 1.6889516752 0.0395072789 -1.0060780081
H -1.8383460456 0.0230685329 -1.3823947017
H -1.8643779224 -1.0775425071 0.1061861373
H -1.0628245034 1.1683260273 1.3470877621
