13
0 1
N 2.3443216735 0.1326346716 1.3328843119
C 1.2940039552 0.5634646606 0.9242659417
C 1.1162433347 0.3790910094 -0.5156065395
C 0.0443355223 -0.5119404926 -0.9551725997
C -0.9341635231 -0.9270977615 0.1532381073
C -1.1919799243 0.5518657956 0.2030898947
N -0.5153951584 0.8934035231 -0.9012123431
H 1.8599523039 0.7231435170 -1.2188771612
H 0.1159023947 -1.0286245216 -1.9063932436
H -1.7749087200 -1.4770826939 -0.2720631179
H -0.5572741338 -1.4469570620 1.0332066722
H -1.8954726729 1.1871025679 0.7266751545
H 0.2782459482 0.8609577866 1.4349569225
