14
0 1
C -1.1736563856 -0.2309907268 0.7153225316
C -0.4638413920 1.0728326522 0.3493870734
C 0.9850694545 0.7200028649 -0.0308965037
C 1.1398912527 -0.7945121085 0.1099121324
C -0.3231922935 -0.8828635779 -0.4137635861
C -0.1334930149 0.5647296769 -1.0359685058
H -2.2370759299 -0.1891101405 0.4440021100
H -1.0594233709 -0.6377118505 1.7331790494
H -0.7308990168 2.0894604912 0.6329480161
H 1.7628383614 1.4816591839 -0.0193019573
H 1.8545258596 -1.1875021342 -0.6258413745
H 1.3475279932 -1.2219037201 1.1042739885
H -0.6773982239 -1.7741231924 -0.9396628988
H -0.2908732938 0.9900325816 -2.0235900752
