13
0 1
C -2.1427115415 -0.0503211166 -0.6959605951
N -1.2464624400 -0.0644570468 0.4492609369
C 0.0634363659 -0.0254823163 0.3953821889
O 0.5442028785 -0.0521005063 1.6068439417
O 0.7945479734 0.0310957069 -0.7176863691
C 2.2236309578 0.0492669409 -0.5049562004
H -2.7171482452 0.8887058628 -0.7474494464
H -2.8615035517 -0.8813077542 -0.6389554486
H -1.5787172550 -0.1534161581 -1.6360414593
H -0.7515628193 -0.0911132696 1.7350696602
H 2.5071376765 0.9261449846 0.0885738733
H 2.6665780168 0.0992856544 -1.5032216005
H 2.5420639838 -0.8625239816 0.0137165184
