11
0 1
C -1.4407428607 1.1749249989 0.0196885051
N -0.7897527850 -0.1421179158 -0.0109305349
C 0.5182125535 -0.3903933085 -0.0027183960
O 1.3733380007 0.5680627508 0.0157872845
C 2.0568593896 -1.6668210722 -0.0270141307
O 2.0941965986 -2.8391514285 -0.0460525459
H -2.2348589325 1.2174123040 -0.7377728422
H -1.8778859052 1.3739209478 1.0088814127
H -0.6851203534 1.9327810483 -0.2005689151
H -1.3976010007 -0.9552499205 -0.0058258428
H 2.2872582951 -0.2330884041 -0.0005749947
