11
0 1
O -0.8519060184 2.2526226235 -0.3642519501
C -0.5606542375 1.0926074614 -0.0442582668
C -1.0221723083 -0.1785289216 -0.5450720567
C -0.1011979714 -1.2364423490 -0.2647635827
C 1.0868086617 -0.7743306618 0.1826270077
C 1.0442039506 0.6890523367 0.3161383993
O 1.8803633771 1.4949738042 0.5301850958
H -0.9714454672 0.6459396871 0.9803763996
H -1.9537247879 -0.2968844698 -1.0850474186
H -0.3598618067 -2.2839185013 -0.3456351827
H 1.8649846079 -1.3625480093 0.6513915551
