15
0 1
C -1.2429078005 1.1704043524 -0.4999840190
C -0.5628601654 -0.0999129464 -0.9477944811
C 1.2440048744 -0.1281697667 -0.4113675628
C 2.1092378763 0.0442303091 0.7819279454
N 2.7599989910 0.2039252009 1.7143877728
C -0.0736827344 -1.0186320073 0.5872646389
N -1.1213806134 -1.2916565181 -0.3329684366
H -0.6517062511 2.0572119323 -0.7313857781
H -2.1499849199 1.2187855162 -1.1112222632
H -1.5554838300 1.2138344796 0.5531331301
H 1.3233721309 0.8338348091 -0.9155343787
H 1.6805264136 -0.8821448343 -1.0591599317
H -0.2834569483 -0.3700031542 1.4313411197
H 0.5729575738 -1.8608270424 0.8084129094
H -2.0046075974 -1.0617293303 0.1176693348
