19
0 1
C -1.6320308443 -1.7720432236 0.2261563903
C -0.7613699276 -0.6287546577 -0.2712703950
C -1.3266282584 0.7650594432 0.0813542131
C -0.3268939678 0.9833913734 1.1858075488
O 0.9541184608 1.2391365193 0.7470597579
C 1.2491570639 0.7504508277 -0.4319164555
C 2.6900595279 0.4951657771 -0.6948958092
H -2.5526420202 -1.8462010599 -0.3643705171
H -1.1090067837 -2.7268823106 0.1459888705
H -1.9144143104 -1.6384726026 1.2744697378
H -0.4891638262 -0.8165633330 -1.3089263783
H -2.3424041316 0.7144441422 0.4789724710
H -1.3246247064 1.5116688873 -0.7201698556
H -0.1118407550 -0.3819669734 0.9504247585
H -0.5354926851 1.5509126480 2.0898532723
H 0.6027544474 0.9994248590 -1.2635951060
H 3.1672950424 0.0388182619 0.1722196758
H 2.7936731296 -0.1765622092 -1.5479051276
H 3.2283625449 1.4190586310 -0.9359980516
