14
0 1
C 2.8899346508 0.0050051575 -0.5666560090
C 1.5651389377 -0.1254022425 -0.1053217524
C 0.2969677964 0.1021413619 0.0232809561
C -0.9863693981 -0.4858675018 -0.4252540287
C -2.1527983326 -0.1072888265 0.5171275771
O -2.1710161093 1.2857102550 0.7648243746
H 2.1654485741 0.2585435419 0.8353628157
H 3.7071276097 -0.4921558304 -0.0476959292
H 3.1431083697 0.7234885107 -1.3496808057
H -1.1858223342 -0.0274396058 -1.4120254847
H -0.9338882781 -1.5766318650 -0.5804273333
H -3.1134379452 -0.3690710498 0.0527081091
H -2.0567765180 -0.6936528637 1.4514279726
H -1.2260660229 1.5125189584 0.9203825379
