14
0 1
C -1.4802920512 -1.0330016174 0.0143850296
C -0.3317853858 -0.5836575510 -0.8541296110
C 0.0819277287 1.3848226072 0.1522488887
N 1.3329367590 1.2908792543 0.5552073398
C 2.0025139325 -0.3272182523 0.5454677794
O 2.4333863956 -0.9084163778 1.4283035553
O 0.7665481328 -1.1681152479 -0.8043987931
H -1.1374704834 -1.2415262327 1.0289933366
H -1.8787622838 -1.9636436107 -0.3989157678
H -2.2878653527 -0.3006297048 0.0409775672
H -0.5879322813 -0.0429164782 -1.7756060675
H -0.6874938842 1.1939156848 0.8898699290
H -0.1731083222 1.9823670922 -0.7153242674
H 1.9817290957 1.7144844343 -0.1013199188
