16
0 1
C 1.9521554036 -0.2304921754 0.0505462216
C 0.4802452231 -0.2678324704 0.4433566489
C -0.4634014196 -0.9358606674 -0.5391092363
C -1.7750248521 -0.5255315415 -0.1911278426
C -1.6723852673 0.6920571299 0.4886901164
C -0.2958176183 1.0414614396 0.5749627669
H 2.5487966284 0.3252328204 0.7858761235
H 2.0808566463 0.2379224951 -0.9342374143
H 2.3491783066 -1.2548412269 -0.0062820034
H 0.3594442218 -0.8125084279 1.3981327564
H -0.1329860037 0.2935738544 -1.4519197161
H -0.2440046001 -1.9014049788 -1.0041956843
H -2.6935220534 -0.9855385762 -0.5544393334
H -2.5092964403 1.3427517562 0.7336328983
H -0.0580246989 1.1176106923 -0.9865953986
H 0.0844585239 1.9058438766 1.1138990971
