11
0 1
C -1.1656625574 0.2609625990 -0.6519286011
N 0.2102890062 0.3599560524 -1.1104319833
C 0.4864402930 -0.7208919311 1.9505324164
O -0.0566715761 -1.0487220473 2.9620801232
C 1.2359271275 -0.4047991705 0.9466251792
C 1.2762596059 0.0364739704 -0.3362942036
H -1.4094785977 -0.7756872525 -0.3777946615
H -1.8311796501 0.5920070062 -1.4561108719
H -1.3207338042 0.8914075232 0.2348478971
H 0.3829886643 0.6630313537 -2.0626954291
H 2.2310634886 0.1688008965 -0.8582398654
