17
0 1
C 1.8472314074 -0.5594998992 0.1906741490
C 0.5142315089 0.1128518212 0.4675754593
C 0.1483473683 1.2910387993 -0.4581721635
C -1.3599152007 1.3716215368 -0.5806453719
C -1.8108756789 0.1809712621 -0.0017372132
C -0.7156640752 -0.8073390578 0.3800206215
O -0.6482306986 -1.8224766256 -0.6058072158
H 1.8796847996 -0.9793227198 -0.8162476145
H 2.6641126535 0.1591436611 0.2802597113
H 2.0370446887 -1.3743592452 0.8917823830
H 0.5255788711 0.5012936481 1.4929118787
H 0.4972988436 1.1168944272 -1.4853984851
H 0.6022409167 2.2361516621 -0.1569782064
H -1.9111897096 1.2931538057 0.6132321024
H -2.8585434113 -0.1139887706 -0.0010193456
H -0.9067689947 -1.3360319390 1.3143261118
H -0.5508992884 -1.4161623663 -1.4708498009
