17
0 1
C 1.5151622030 1.4064457141 -0.6422742059
O 1.3322171939 0.5053839077 0.2904743451
C 0.5223867119 -0.4985896683 0.2062682523
C 0.1569400619 -1.4041711264 1.3422382861
O -1.1816808781 -1.4820859095 0.8177676433
C -0.9174767626 -0.5537612160 -0.2592847373
C -1.7503955566 0.7065452475 -0.1466615604
H 1.8495703895 -0.2402983685 -1.7887082106
H 0.7200217735 1.6076071042 -1.3454871314
H 2.2777358953 2.1302477788 -0.4058286282
H 1.5191921118 -0.8827276512 -1.4675298229
H 0.1901008182 -0.9537632331 2.3412808087
H 0.6390440048 -2.3852682432 1.3674723639
H -1.0842759131 -1.0382245176 -1.2270789163
H -1.5958275557 1.3653810400 -1.0027714044
H -2.8043018631 0.4258191095 -0.1242371224
H -1.5207196345 1.2565280320 0.7674960404
