10
0 1
O 0.2171277795 0.6733658543 0.9870822172
C -0.5140693958 0.4479307138 -0.0643086552
C 0.0478225084 -0.6276262373 -0.7997269994
C 1.3445985795 -1.0197730245 -0.1356461440
C 1.2906438636 -0.2014710107 0.9643773211
C -1.6720195482 1.2358627683 -0.2837689159
N -2.6193928975 1.8454165657 -0.5092959879
H -0.2493078858 -0.8737169767 -1.8099977601
H -0.1424540194 -1.5468455325 -0.1240635973
H 1.9594050157 -0.0474841205 1.7956585215
