14
0 1
C 1.7625969228 0.9363810202 0.0207780972
N 1.2338330515 -0.2288511897 -0.4083337942
C 0.0500488059 -0.6369595547 -0.0239055096
N -0.4686020055 -1.8819440351 -0.4953506342
C -0.9240457994 0.3316095339 0.3689480994
O -0.5922067010 1.5442729225 0.6087625823
N -2.2289818814 0.0148343224 0.3114331598
H 1.7835456086 1.1250485961 1.0964061148
H 0.4813301972 1.6435542955 0.2028932293
H 2.6664009476 1.2460530870 -0.4930867968
H -0.4121000141 -2.5958138785 0.2195483060
H 0.0956272947 -2.1902505152 -1.2778079822
H -2.4533598009 -0.8512212808 -0.1546696723
H -2.8991646260 0.7620996763 0.3456578005
