15
0 1
O 2.1703913825 0.8138471492 -0.2266682419
C 0.8630742919 0.3722240875 -0.3808257880
C 0.6424686082 -1.1666379143 -0.0366313126
C -0.7214960360 -1.1943691745 0.4849206294
C -1.4742023300 0.0427474674 0.5359002123
C -0.4349757104 1.1150616130 -0.0371238222
C -0.0132710675 0.8576300355 -1.3612311343
H 2.4813633232 0.5537977906 0.6431280754
H 1.3451050261 -1.6064242842 0.6902070778
H 0.8561047009 -1.6523600689 -0.9882782839
H -0.9270463896 -1.9230281841 1.2641915727
H -2.2998096045 0.1944270822 -0.1588989067
H -1.8858000807 0.2145535962 1.5421105713
H -0.5550368681 2.1096989640 0.3879018974
H -0.0482472459 1.2673268402 -2.3554555465
