14
0 1
O -1.9508629596 0.4480159001 -0.3652839605
C -1.4389946319 -0.8636273997 -0.1261168890
C -0.0513331875 -1.2692787007 -0.3952877610
C 0.7929653978 -0.1532994421 -0.8854721468
C 1.3482370613 0.5859152667 0.3809644808
O 0.3323805036 1.2404624204 1.1549646774
H -1.3176513635 1.0539425624 0.0790064587
H -1.6243156807 -1.1887445324 0.9283301447
H -2.0688378433 -1.5697307294 -0.7015927266
H 0.0516317167 0.6269953509 1.8584271207
H 1.6840472924 -0.5159464164 -1.4218618882
H 0.2678574169 0.6061628617 -1.4951759820
H 2.0205204001 1.3748709852 0.0245360734
H 1.9236308774 -0.1166641265 0.9996563984
