10
0 1
C -1.2496587096 0.2951621419 0.0980624671
C -0.0821660265 -0.3461320151 -0.5633372471
C 1.2418194377 0.1421985216 -0.1359637709
O 1.0126209336 -1.0319364618 0.6588941966
H -2.0604578514 -0.4100730577 0.2772790858
H -1.6206194833 1.0306087354 -0.6267963406
H -1.0065928709 0.8281408086 1.0236704482
H 0.4495413369 -1.5659217416 -0.1397006991
H 2.0913699879 0.0624619479 -0.8111408756
H 1.2835762456 1.0178981209 0.5097827355
