16
0 1
C 1.3876511837 -0.5033893752 1.0982912834
C 0.4225168471 0.0071950282 0.0888742911
C 0.6285068650 0.7848809278 -1.1589650191
C -0.2451223761 1.3236534148 -0.0851289570
C -1.1593482882 0.2081571723 0.2300331108
N -1.9894863680 -0.4831945631 -0.7115148082
C -1.0117460960 -1.5025250879 -0.6283393107
H 0.9423984835 -0.5111943123 2.0954824525
H 2.2834604063 0.1209118602 1.1287933031
H 1.6897963051 -1.5231380866 0.8536575284
H 1.5958605902 1.2670205309 -1.2526207138
H 0.2153643441 0.4219575312 -2.0967719034
H -0.1376979391 2.2156549116 0.5101178906
H -1.5110913271 0.1531141697 1.2545963691
H -1.9651917110 -0.0328843339 -1.6197131815
H -1.1586289197 -1.9585027877 0.3698056647
