14
0 1
C 1.7836744853 -0.3506423062 -0.3556050635
C 1.0782639879 0.3261410984 1.1970456420
C 0.2062636777 -0.6103354026 0.5997121218
C -0.9513335504 0.0632819864 0.0474338541
N -1.9733916948 -0.5568826266 -0.6809516531
C -0.7069909717 1.3639803278 0.2837766040
O 0.4832648342 1.5520818311 0.9115555538
H 1.2901252950 -0.7664691930 -1.2387956548
H 2.5595814196 -1.0158805975 0.0011531585
H 2.1848444479 0.6201442269 -0.6240485048
H 0.2875164470 -1.6773959238 0.7555087779
H -2.3405102641 -1.3802499306 -0.2285962125
H -2.7286816031 0.0653981749 -0.9225567092
H -1.2818735107 2.2501323348 0.0586610856
