14
0 1
O -0.8112276994 -1.4625176428 1.1747320165
C -0.6748259562 -0.6182023766 0.1884148436
C -1.0712680882 0.8614662226 0.1173679219
N -0.0000289087 1.0711320294 -0.8788588170
C 0.6301777190 -0.2050869666 -0.5487816821
C 1.7711611816 -0.1426555161 0.4440785362
O 2.2266399187 0.8917786515 0.8457282952
H -1.4064766054 -1.6413491761 -0.0808053979
H -1.4004219401 -1.1198038141 -0.8939152114
H -0.8765578689 1.2976260313 1.1032871088
H -2.0786923573 1.1180861273 -0.2099564775
H 0.6005766621 1.8617653176 -0.6788266119
H 0.9414085575 -0.8245129229 -1.3965379752
H 2.1655343849 -1.1204309645 0.7746094507
