14
0 1
C -1.7735788881 0.4292669142 -0.3219983007
C -0.3544540708 0.0201463048 -0.1345014458
C 0.8309082962 0.9407990982 -0.1741745061
C 1.9253976391 0.0623671044 0.3720755947
O 1.5122043569 -1.2533958647 0.5063091891
C 0.0758675377 -1.3058941123 0.4025361931
H -2.4227054667 -0.4353567433 -0.5276346263
H -1.8805296172 1.1387969292 -1.1575644673
H -2.1842781329 0.9351525307 0.5744977592
H 1.0293181566 1.3100753045 -1.2045460933
H 0.6717403540 1.8536867367 0.4365030874
H 2.9834470849 0.1513486865 0.1336078616
H -0.3518043880 -1.5233764003 1.4030993277
H -0.1854568618 -2.1564974889 -0.2526725732
