14
0 1
C -1.3709532997 -0.2823671726 0.3479503805
C -0.9136492470 0.9032672918 -0.3651218991
C 0.4098155757 1.4076727825 0.0787155615
O 1.2713368044 0.5712194677 0.9122675329
C 1.5134030589 -0.6696508219 0.4711649881
N 0.8052453975 -1.4022312391 -0.2755178297
C -0.4642236692 -0.9293018742 -0.7313511539
H -0.9886230049 -0.4942823245 1.3451410461
H -2.4225554066 -0.5334314780 0.2444383699
H -0.3624831161 -0.1058527266 -1.5264767696
H 0.1860888239 2.2831617524 0.6931846834
H 1.0147892265 1.7455228609 -0.7646226959
H 2.4528292343 -1.0537731987 0.8618964199
H -1.0112903775 -1.6759813198 -1.3014846340
