16
0 1
C -1.9287259830 -0.4301794848 -0.0581943052
C -0.7036193970 0.4804516148 -0.2744248839
C 0.0984376101 -0.0109859045 -1.4624482126
O 1.3112114958 -0.1690986588 -1.4827585127
C 0.1624293915 0.6139408573 0.9909843118
O 1.2525060206 1.5037747126 0.8274299733
H -2.5337012641 -0.5170970213 -0.9716572743
H -1.6163315264 -1.4407067323 0.2411477786
H -2.5696288074 -0.0225810506 0.7345206469
H -1.0657082822 1.4856693497 -0.5611088793
H -0.5098700850 -0.2366514463 -2.3738436931
H 3.3139875359 -1.6708294899 0.8891490036
H 2.9187967678 -1.3437469644 0.3481377208
H -0.4529046193 1.0201109901 1.8052019462
H 0.4913362914 -0.3977078091 1.2956618059
H 1.8049198513 1.0990060373 0.1288285740
