13
0 1
N -1.8072027893 0.6355929400 -0.0315649338
C -0.4267944748 0.3186409016 0.0587264958
C 0.0196352874 -0.9643058133 0.0193763505
O -0.6770491483 -2.0960825506 -0.0995923231
N 1.3790002923 -0.9839782470 0.0911481179
C 1.9415722292 0.2647334799 0.2672521535
C 0.7741970233 1.1125577780 0.1741966916
H -2.0393304088 1.1589574369 -0.8638131703
H -2.1480223298 1.1427586346 0.7724310726
H -1.6079455543 -1.8353345752 -0.1258478719
H 1.9209446246 -1.8278524759 0.0334834336
H 1.5748782186 1.0166138343 -0.8064023578
H 0.8222250300 2.1716726566 0.3918993416
