15
0 1
O 0.5536108729 -0.2747772317 -1.1285124079
C -0.2991408415 -0.0525330843 0.0063466780
C 0.7782560692 -0.0827850294 1.0654421039
C 1.8422949640 -0.2355521941 -0.0334469740
O 2.3645450073 0.8354567032 -0.5527065194
C -1.6341242590 -0.6943862894 0.0433095342
C -1.5026595565 0.8040911407 -0.1171777935
H 1.2795222690 0.6880471321 -1.2264078769
H 0.9192466841 0.8411477002 1.6232286131
H 0.7097078042 -0.9347108734 1.7412060171
H 2.3916925591 -1.1817929935 -0.0974396461
H -1.9849999469 -1.0859121326 0.9897724785
H -1.9277238302 -1.2626884698 -0.8292509715
H -1.7160137230 1.2194500653 -1.0934226647
H -1.7575260726 1.4423645567 0.7188334294
