15
0 1
C -1.4102889851 0.7548439779 0.6683636928
N -0.2349902040 -0.0714505974 0.4076835877
C -0.0303188176 -0.5586000033 -0.9635691474
C 1.6844695128 0.1386890871 0.0963606962
O 1.9174316033 1.2352213689 0.8472856729
C -0.7958846344 -1.6973403896 -1.3227199308
N -1.3595122841 -2.6805841888 -1.5591071491
H -2.3081515514 0.2671945651 0.2715829380
H -1.5290669260 0.9304657740 1.7395237197
H -1.2885749044 1.7153361050 0.1675317879
H -0.2031453264 -0.8611392955 1.0386207004
H -0.0541704071 0.2497494943 -1.6844364012
H 2.0770995149 0.3261227307 -0.8905254477
H 1.9343774114 -0.8286960050 0.5179387666
H 1.6420799980 1.0857583767 1.7573635137
