14
0 1
O 2.0257985269 0.9692991741 0.4455235065
C 1.7440475260 -0.2684188681 -0.1915103300
C 0.3864418261 -0.8589579024 0.2317095203
C -0.7765297479 -0.0980907009 -0.3567847302
C -1.8291123018 0.4765569790 0.4968456740
O -0.8897761366 1.3428139945 0.0315314241
H 1.2314583356 1.5278407509 0.3515096617
H 1.7725346791 -0.1822219393 -1.2962035589
H 2.5502862498 -0.9528964647 0.1046351921
H 0.3070548592 -1.9025854627 -0.1129616550
H 0.3171348397 -0.8623061526 1.3281059598
H -0.9458953879 -0.2129900670 -1.4293163308
H -2.9748887563 0.5968422675 0.4097300287
H -3.0853305120 0.4694763916 -0.6776383622
