15
0 1
C -0.9548530834 1.2186778562 -0.2208907303
C -0.3325858342 -0.1659884042 -0.3617527023
C 1.1729142060 -0.1162485400 -0.7266518764
C 1.9863932851 0.5683442373 0.2721117301
N 2.5925623581 1.0961800841 1.0912782520
C -0.6310863711 -1.1397715078 0.8370039839
N -1.0566345953 -1.2009134641 -0.8536272649
H -0.4215652647 1.8360572467 0.5043007037
H -0.9191608137 1.7261744467 -1.1870142395
H -1.9993552469 1.1260844030 0.0732692077
H 1.2799417611 0.4012983161 -1.6824109816
H 1.5389449215 -1.1346383586 -0.8603001715
H -1.2696398834 -0.6357778027 1.5540301174
H 0.2991159127 -1.5544902647 1.2136231892
H -1.2220893515 -2.0166792478 0.4398557823
