15
0 1
C 2.0567539533 0.0393708112 -0.0050158501
C 0.5715792850 -0.0198172998 -0.1016513909
C -0.2776660892 -1.2213325034 -0.6356301156
C -1.3755408973 -0.2102015507 -0.8969436812
C -1.4769428836 -0.5484151253 0.5735453605
C -0.4400412403 0.5379436148 0.8627451057
C -0.4439390100 0.9862255034 -0.5816499499
H 2.3904172785 1.0160230422 0.3528531324
H 2.4262350495 -0.7220387599 0.6857062255
H 2.5151716868 -0.1392632193 -0.9799010956
H -0.8528370674 -1.6332522262 0.5673926574
H -2.1802924489 -0.3228035931 -1.6120313642
H -2.4029444588 -0.8256730423 1.0679608049
H -0.2332829567 1.1013195852 1.7606385517
H -0.3310562008 1.9738967631 -1.0000073906
