11
0 1
O 2.4521135966 0.6371924814 0.3953116840
C 1.3458130545 0.2308851150 0.3361257269
N 0.5370868477 -0.7982692318 0.7133314962
C -0.8193161026 -0.5586332863 0.1947938111
C -0.5694955921 0.7487602103 -0.6344769099
O 0.3318735666 0.6324358534 -1.5631294095
H 0.9621435757 -1.7101704612 0.5298609948
H -1.1340644063 -1.3790932812 -0.4621041729
H -1.5292375552 -0.4294709902 1.0219321338
H 0.0276638005 1.3033602560 0.3649581724
H -1.5080847855 1.3014123345 -0.8564725268
