17
0 1
C 1.7498068999 -0.4698478080 -0.5025125777
C 0.3932208336 0.2538240137 0.7900271982
C -0.1159949550 1.5518038674 0.3234962313
C -1.2938645777 1.2643500890 -0.4509908832
C -1.6418715168 -0.0364289174 -0.3876852694
C -0.7785141415 -0.7164733736 0.6466120778
O -0.4719715934 -2.0724285707 0.4495005122
H 1.4332833704 -0.5738361022 -1.5414266309
H 2.6590086461 0.1234789596 -0.4152186183
H 1.8577099602 -1.4392952206 -0.0281086362
H 1.0652762591 0.1797523692 1.6341173014
H 0.8699164499 0.6889004169 -0.3023821235
H 0.3379270841 2.5056754463 0.5307393479
H -1.8255595545 2.0172872864 -1.0193448186
H -2.5145868872 -0.5018436397 -0.8213795838
H -1.2778233785 -0.6691448458 1.6288726423
H -0.4080458988 -2.2198079703 -0.4967841694
