16
0 1
C 1.5667328310 -0.7041500403 0.8963137019
C 0.5849579186 -0.3442592037 -0.1694231936
C 0.8705450575 0.5036533623 -1.1680107530
C -0.6202560977 1.5045372863 0.4722154529
C -1.5607385489 0.3284707444 0.4530035346
N -1.9183196635 -0.4195857926 -0.7460690252
C -0.8002170375 -0.8750271565 0.0587279940
H 1.1410173053 -0.5030315710 1.8808946129
H 2.4977666732 -0.1497152255 0.7935417232
H 1.7855794116 -1.7744164024 0.8399079444
H 1.8303024933 1.0019168619 -1.2035986409
H 0.1999171526 0.6851705774 -1.9971114243
H -0.8373838535 2.1670357469 -0.3845141350
H -2.2902553940 0.3196405869 1.2586710231
H -1.6322635515 0.0529963185 -1.5948903633
H -0.9010106968 -1.8458130927 0.5299315483
