14
0 1
O -1.1608084295 -0.3399399336 -0.7966529975
C -1.2035717438 0.6379267310 -0.0150678335
N -0.9673064270 0.4096127538 1.3073090279
C -0.7070838190 -0.7711334286 1.8335441158
C 0.7312354217 -0.9633657564 -1.0844832258
C 1.4250323081 0.1462468183 -0.6392221369
C 1.6836742678 1.2304101051 -0.1582304247
H -1.3125560844 1.6790646961 -0.3077692930
H -0.9126441969 1.2237923496 1.9017088026
H -0.8252807818 -1.6406683074 1.2117800163
H -0.4622965831 -0.8264466234 2.8810715633
H 0.8215799673 -1.8881929458 -0.5302670521
H 0.5427466713 -1.0629665094 -2.1434628334
H 2.1138584293 2.1389550507 0.1931012710
