12
0 1
C -1.4047980659 -0.4841161170 -0.8988012629
C -0.2685964742 -0.0568950645 -0.0286286475
C 0.1961698136 1.2152197152 0.2381045572
O 1.4073953885 1.1820174364 0.7133310460
C 1.8549582067 -0.2320891435 0.7336656773
O 2.9533425865 -0.4750666197 1.1177870687
N 0.8299685958 -0.9877425618 0.2800618505
H -1.0566363296 -0.6159433938 -1.9241973585
H -1.8147728815 -1.4344019009 -0.5601405792
H -2.1986039568 0.2630052793 -0.8899612409
H -0.2914966195 2.1736328339 0.1259691532
H -0.2495132634 -0.5455034636 1.0629037363
