11
0 1
N -2.0823623143 -0.7220579284 0.1047497992
C -0.9083125510 -0.7196150807 -0.6552154604
C 0.3318015395 -0.5943991641 -0.2002828247
C 1.5358937326 -0.1561648994 0.1331740689
N 1.9352931184 1.2232395259 0.1561802198
N 1.0316366732 2.0281088348 0.5024516443
H -1.9206183423 -0.7701555610 1.1083795536
H -2.7726626367 -1.4088692500 -0.1932984277
H -1.0761895534 -0.8160309245 -1.7322353310
H 2.3796946182 -0.8268601280 0.3169516092
H 1.4617397159 2.9747095755 0.4078241486
