8
0 1
O -2.0412223316 0.3556891528 0.1919527215
C -0.8137983179 -0.0477303410 -0.1513285572
N 0.2406257775 0.3573685955 0.4607808179
C 1.4569322695 -0.1630547971 -0.0282267705
O 2.5397491225 0.1119615754 0.4459712280
H -0.8633572003 -0.7466145320 -0.9986194059
H -1.9301390896 0.9735865769 0.9505265792
H 1.3609327698 -0.8603412304 -0.9004416129
