14
0 1
C -1.3461409759 -1.0388588821 0.3860875244
N -0.2715879142 -0.1473024489 -0.0197504253
C -0.5956225559 1.2551220935 -0.2132069573
C 1.0132877972 -0.6547188361 -0.1272290834
O 1.2787337349 -1.8563246606 -0.0568329771
N 2.0037850597 0.3056438548 -0.3935329310
H -0.9353244019 -2.0497195235 0.4504194362
H -1.7589034491 -0.7467062580 1.3658848311
H -2.1613132310 -1.0225344758 -0.3542339578
H 0.0581313923 1.6904169409 -0.9785059676
H -1.6312808114 1.3372881432 -0.5697754346
H -0.5135860460 1.8505029283 0.7152714311
H 2.9250934550 -0.1138780650 -0.3062158845
H 1.9347279464 1.1910691892 0.1016203962
