14
0 1
C -1.8406115368 -1.0901655701 0.3464687023
N -0.7657627773 -0.2729808471 -0.1866681857
C -1.0621215942 0.7812556708 -0.8347351469
C 2.0880983448 -1.0231528123 -0.0511678582
O 1.7361668749 -2.0221430755 0.4698582614
N 2.3600247789 0.0359958565 -0.6145608935
H -1.7527877119 -2.1016715924 -0.0763168000
H -1.7015916915 -1.1875741211 1.4329867164
H -2.8579761759 -0.7026368345 0.1452490653
H -0.2465729780 1.3907528366 -1.2381408262
H -2.0969510897 1.1264313914 -1.0207057174
H 1.3924126564 2.7293148057 1.4523902026
H 3.3248316567 0.3188676016 -0.7490919546
H 1.4482862435 2.1139406905 1.0338964345
