10
0 1
C -0.5968898992 -1.3576191640 -0.1886313784
C -0.6284098919 0.8204247837 0.4368944050
N 0.7146165676 0.9630763619 0.0201294786
C 1.3464549902 -0.0856743154 -0.2553310851
O 0.7747227070 -1.3107504109 -0.1280778240
H -0.9966567979 -0.3523897323 0.6313572657
H -0.8812255379 -0.9117312834 -1.1631310896
H -1.3448552211 1.2595748325 -0.2532918124
H -0.7769202504 1.2168450979 1.4447844423
H 2.3939643335 -0.1081611699 -0.5314204022
