14
0 1
C 1.6667867618 -0.8402307409 -0.6867997673
O 0.6290048696 0.1103443490 -0.6187812178
C -0.7290043927 -0.4839446934 -0.4561459837
C -0.0205919282 0.4107126475 1.1656455273
C -1.3322557987 0.4300435273 0.5010859416
O -1.8119019928 1.7352820801 0.1792231215
H 1.7114440461 -1.2623734003 -1.6943540421
H 1.4853752138 -1.6546491420 0.0217497062
H 2.6075889397 -0.3289685430 -0.4715757375
H -1.2043256127 -0.7926259114 -1.3840988025
H 0.5865427953 1.3084994802 1.2302229698
H 0.2070501949 -0.3969467132 1.8489391134
H -2.0943547396 -0.0851612243 1.0938137223
H -1.6584263565 1.8655582842 -0.7588595510
