13
0 1
O 1.4629570769 1.3596918019 -0.1360954151
C 2.0839390705 0.1893632318 -0.7050537213
C 0.7845824174 0.1623317530 -0.0656330320
O 0.5529716435 -0.4343340441 1.1971460470
C -0.7474690139 -0.8361480850 0.7548424111
C -1.5827489100 0.3557413253 0.4752612253
C -0.5989554918 -0.1331715266 -0.5630685969
H 2.9412222094 -0.1842547963 -0.1542067435
H 2.1684630561 0.1936278987 -1.7879716390
H -1.0843016022 -1.8309613285 1.0057260506
H -2.6193884289 0.1591016472 0.2306875099
H -1.3926350375 1.2749311894 1.0161793732
H -0.8698039894 -0.4330430667 -1.5633204690
