12
0 1
O 0.9384313232 2.2206836138 0.6446790600
C 0.6026675122 1.0899927742 0.4217532674
N 1.4400904529 0.0900016030 -0.0516651544
C 0.9855468053 -1.1947863550 -0.3451944604
C -1.0771482941 -0.5777263423 -0.3598300600
O -1.2584499987 -0.5403006089 1.0199244939
C -0.8512227933 0.6612222873 0.3535022996
H 2.1917059320 0.4525146054 -0.6206642223
H 0.6506758256 -1.6955571489 0.5632440104
H -0.1232299295 -1.1709570886 -1.0004157365
H -1.9443685699 -0.8039464648 -0.9764067664
H -1.5697512657 1.4723391249 0.3633662689
