13
0 1
C 0.5612042173 -0.8434812010 0.3335553796
C -0.6327904187 -1.3726527048 -0.2627819535
O -1.3659158486 0.7177081522 0.9070020795
C -0.9804778647 1.4742349869 -0.0716823529
N 0.2038889693 1.4788718057 -0.6495569548
C 1.1457080116 0.4745487906 -0.2214195794
H 0.0336338091 -0.4572271393 1.2751885830
H 1.2968515100 -1.6061769137 0.6272452182
H -1.2297819741 -0.8140888919 -0.9774582095
H -0.9879336549 -2.3664377978 0.0144055359
H -1.6994275960 2.2089372486 -0.4787552535
H 1.8113602512 0.9070068069 0.5491750807
H 1.8039205884 0.2286908578 -1.0712785732
