13
0 1
C -0.5742353412 1.4006732545 0.0018767796
C 0.3067344044 0.8921714435 1.0239049687
C -0.7491025178 -1.4071988400 0.0574802899
C -0.0171101024 -0.1176675164 -0.2775724006
C 1.4379081103 0.3369969339 0.3205452184
H -0.2596424189 2.0176610196 -0.8634113865
H -1.6327731392 1.5217407844 0.2537814588
H -0.9412976152 -1.4798141630 1.1317749234
H -1.7069975958 -1.4492089581 -0.4815004855
H -0.1504586523 -2.2743141383 -0.2585681755
H 0.1895284086 -0.0399425812 -1.3526863996
H 2.0400848368 -0.4173714734 0.8371560837
H 1.9810836226 0.8362382344 -0.5061498748
