15
0 1
C -1.9377596376 -0.4718401881 -0.8609760149
C -0.6877228388 0.0628824137 -0.2468230839
O -0.6672552459 1.4074847492 0.0516824466
C 1.3968397801 0.2111665915 1.4040330269
C 1.9151554965 0.3579448836 0.1459758138
C 0.3552691097 -0.7656978090 0.0161917933
O 0.6323033654 -1.9449011664 -0.0285510480
H -2.7943413177 -0.3015772709 -0.2021968714
H -2.1519812595 0.0180783918 -1.8185400666
H -1.8405998074 -1.5403558714 -1.0422846546
H -1.1232386973 1.8792578296 -0.6491543467
H 0.8003463698 0.9927875829 1.8525288251
H 1.6570627127 -0.6441035637 2.0126833976
H 1.7529546011 1.2731834181 -0.4061845002
H 2.6355753689 -0.3481399909 -0.2436377169
