11
0 1
N 3.0215698464 -0.7296100810 0.6986271372
C 1.9178360202 -0.5213596450 0.1696853570
C 0.7301079724 -0.0943011088 -0.4381171555
C -0.4365937320 0.2890207571 0.3651686758
C -1.6764870622 0.7673800504 -0.2867461502
O -1.6473489337 -0.5392777812 0.2855196450
H 1.7768567949 -1.6343350410 0.4263733629
H 0.5717788945 -0.4183946432 -1.4671170100
H -0.2254224148 0.6460162703 1.3765545548
H -2.2926311385 1.5131039652 0.2278738261
H -1.7162242470 0.8098252572 -1.3811752431
