10
0 1
O 1.4807064877 0.2808712753 1.6165186311
C 1.3921810760 -0.3833775136 0.5987665557
C 0.2844403428 -0.1949448136 -0.4189808687
C -2.0979459459 0.6572620039 -0.2251361900
N -0.8324130241 0.6092425317 0.1323175291
H 2.1370499319 -1.1751018224 0.3470530991
H 0.7189130789 0.3162962198 -1.2959797103
H -2.2002543588 -0.0552458351 -1.0856941523
H -0.0935903872 -1.1667486968 -0.7672685309
H -0.5207912013 1.1748246509 0.9285336372
