13
0 1
C -0.9269154332 -0.4184219814 1.2539519376
C 0.1781992734 -0.6892874637 0.3099264166
N -0.9428507078 0.4402126982 -1.4280848178
C 0.3189246279 0.1074431881 -0.9830823595
C 1.2819416213 1.0688878600 -0.2584058772
O 1.4990255456 0.5544304482 0.8432559859
H -1.3299580608 0.5825355266 1.1265628225
H -0.5843174089 -0.5916449938 2.2765495325
H -1.7293760493 -1.1315736544 1.0527786230
H 0.6011084939 -1.6936878645 0.3626266244
H -1.0047846937 0.2831517727 -2.4276344112
H 0.9861900871 -0.4416392208 -1.6785426861
H 1.7450317044 2.0247796847 -0.5271667905
