17
0 1
C -1.3525394283 -1.4704907176 -0.2489432414
C -0.3917564254 -0.3674213906 0.0086985094
C 1.0747753846 -0.5838145493 -0.1607965499
C 1.9559205409 0.4348300546 0.5566726490
O 1.9123130767 1.7147271222 -0.0338312563
C -1.8191959455 1.1758491779 -0.1650613914
O -0.7401943630 0.7733811391 0.5831317370
H -1.5926661006 -1.6270074931 -1.3026875279
H -0.9280433448 -2.4127929454 0.1241943345
H -2.2975473084 -1.2277215527 0.2456250772
H 1.3213477486 -0.5560447485 -1.2306835264
H 1.3177259980 -1.6008600682 0.1707259236
H 2.9940955224 0.1056309021 0.4930049780
H 1.6910355677 0.4807177759 1.6195330328
H 1.0446555857 2.0876197629 0.1388223300
H -2.5996246797 1.6757364178 0.3885047112
H -1.6013888286 1.4116601127 -1.1934187895
