17
0 1
C 2.1258050291 0.9462007965 -0.4830995683
O 0.7176836873 0.8899120515 -0.4750020350
C 0.2326906891 -0.3956503181 -0.6495468111
C 0.3611134774 -1.5047291417 0.4181249434
O -0.9648078863 -1.7665393751 0.3455588418
C -1.2797033233 -0.5921718963 -0.4657368702
C -2.0072360414 0.4566653047 0.3282164824
H 2.5527715517 0.3707633468 0.3461300012
H 2.5315364316 0.5590878972 -1.4257841895
H 2.4064864556 1.9918013517 -0.3724126028
H 0.5822381749 -0.8141034695 -1.6045124154
H 0.4724053446 -0.3488518216 1.7056823523
H 0.8233664272 -1.1736643642 1.5627324345
H -1.8377093620 -0.8905875346 -1.3559801827
H -2.0769555336 1.3765202609 -0.2533872005
H -3.0129369900 0.1129745675 0.5711613992
H -1.4750761317 0.6850853443 1.2534954204
