14
0 1
C -1.7583245298 0.5229501672 -0.4214996173
C -0.2972499817 0.0743571160 -0.4572798990
C 0.7772663115 1.0970923820 -0.3584519973
C 1.8298166854 0.3477615943 0.3377233939
O 1.5261841749 -1.0522907337 0.5111990862
C 0.1016823367 -1.1220116518 0.4467185047
H -2.4330947756 -0.2962054393 -0.7065133851
H -1.9181049738 1.3696906981 -1.0996048109
H -2.0245570021 0.8442301094 0.5950020896
H -0.0271000226 -0.2130961669 -1.5091811906
H 1.7695375640 0.8955941953 1.3206049458
H 2.8634259555 0.4595563969 -0.0148813757
H -0.3548505401 -0.9955024551 1.4487856448
H -0.1814142022 -2.1037972123 0.0481286108
