16
0 1
C -2.0430567406 -0.8599045223 -0.2303480895
C -0.5957620021 -0.5761133900 -0.4691128829
O -0.6829219448 0.9717755314 -1.3467136374
C 0.1285711225 -0.2386639429 0.7963222923
N 1.5793851822 -0.1208936508 0.6990704076
C 2.1964764315 0.9421940303 0.1746128054
O 1.6317726208 1.9192824423 -0.2939026558
H -2.1132918463 -1.8671114737 0.1930433244
H -2.6049776243 -0.8678640486 -1.1632119097
H -2.5293608462 -0.1606027763 0.4643807715
H -0.2576216137 0.0576419209 -1.6972414521
H 0.0853209633 1.4886514326 -1.0101549393
H -0.2569214605 0.6794280783 1.2601582827
H -0.0764103785 -1.0529032745 1.4960510611
H 2.1459870067 -0.9113438166 0.9493401357
H 3.2949841297 0.8749144601 0.2052834862
