15
0 1
O 2.4269769116 0.7872841162 0.8010067437
C 1.6227809645 0.1437516648 -0.1615945432
C 0.3779437425 -0.4321016086 0.4614593405
O -0.4775793488 0.5894588248 1.0497082442
C -1.6039061707 0.0614166048 0.3923888005
C -1.3889555090 -0.0252863800 -1.3996227747
C -0.7859266968 -0.9321073122 -0.4203924304
H 1.9097287479 1.4970803641 1.1896609423
H 1.3591735643 0.8266546004 -0.9771185123
H 2.2176642830 -0.6701757423 -0.5824978995
H 0.6436260837 -1.1501870992 1.2415007922
H -2.4425480775 -0.2779004643 0.9951224269
H -0.7515445099 0.8583677585 -1.5415097221
H -2.1473793866 0.7495018235 -0.3974500836
H -1.0371975982 -1.9856401505 -0.4477423248
