11
0 1
O -0.3855173777 0.7200370465 -1.5917919330
C -0.4132664497 0.6931209262 -0.2899985825
C -1.1970773938 -0.3485712871 0.3034294776
C 0.1835286946 -0.9703346810 -0.1772232693
C 1.2217040942 -0.2385444115 0.3442314186
N 0.7574059145 1.0835146525 0.5054016424
H -2.0456183649 -0.6927168088 -0.2703775821
H -1.3057032767 -0.3942817304 1.3812312614
H 0.0116893688 -0.5115395592 -1.5273127392
H 2.2779200654 -0.4617114922 0.2354303462
H 0.5894557255 1.4753623451 1.4222289598
