12
0 1
N 1.0267294458 0.2971425652 1.7768548216
C 0.7011834492 -0.4917969545 0.8377601001
C 0.6549920529 -0.1901847626 -0.7428323793
C -0.6140497266 -1.0077076573 -0.7397228052
N -0.7552479475 -0.7468598757 0.7261493149
C -0.3627273087 0.7008820569 0.9001077034
N 0.0734713713 1.1486149640 -0.4299378392
H 1.4557685312 -0.2217698666 -1.4712766641
H -1.4309546212 -0.6168590502 -1.3416604913
H -0.4791686923 -2.0768951417 -0.8843673881
H -0.9468307739 1.3339738838 1.5504605303
H 0.8151042196 1.8278358388 -0.2914049031
