11
0 1
O 2.5129076842 -1.2749274671 -0.0481799940
C 1.5264075456 -0.6213372406 -0.0305931902
C 1.3824710709 0.8417761954 -0.0386658868
C 0.1845544556 1.4623471296 -0.0158046210
N -1.0521607972 0.7700978453 0.0181654465
C -0.6403899426 -0.3981810594 0.0176359827
N 0.1654231309 -1.2907812198 0.0062065694
H 2.3010800992 1.4081676967 -0.0634681056
H 0.0836939118 2.5390795249 -0.0219006606
H -3.0413641780 -2.1172442850 0.1011641741
H -3.3978949803 -1.4621721202 0.1013662857
