15
0 1
O 2.2805993251 0.4951755960 -0.7399672978
C 0.8988943660 0.4487538115 -0.4205003522
C 0.5850855118 -0.8491268845 0.3013592283
C -0.8116283199 -1.1951538816 0.7316044890
C -1.9573342811 -0.5488193142 0.5686697744
C 0.1928356789 1.7376282681 -0.2434204000
C 0.0239651949 1.1384614710 -1.3786853495
H 2.7879514372 0.3365740836 0.0594747970
H 1.2132477027 -0.8919721740 1.2023070126
H 0.9522837918 -1.6660052216 -0.3305212597
H -0.8530592756 -2.1455688830 1.2606125166
H -2.0394847232 0.4000157159 0.0593642020
H -2.8741132555 -0.9753378381 0.9580114794
H 0.0006784420 2.5883685397 0.3879054290
H -0.4045285949 1.1310267112 -2.3663362691
