16
0 1
C -1.0833431494 0.1707258188 0.9407020569
C -1.5144240892 -0.0049488457 -0.5018557711
C -0.0628392860 -0.1682432407 -0.1152563640
C 0.5401886799 -1.5643262197 -0.1301332376
C 1.9254612190 1.5325339732 0.3212151476
C 0.9392574010 0.9046762257 -0.5375948732
H -1.3567335676 -0.6042980157 1.6570432572
H -1.0836115872 1.1789146613 1.3576537975
H -1.8023738557 0.8867199577 -1.0604931549
H -2.0803274863 -0.8994859729 -0.7653312581
H 0.9112814057 -1.8221397893 -1.1335136550
H -0.2068299299 -2.3170288311 0.1576865000
H 1.3839869083 -1.6331150625 0.5729234578
H 1.5463318857 1.3674031404 1.3644701537
H 1.2381112569 0.8046784390 -1.5946066539
H 0.4671191948 1.9508847614 -0.4874204030
