16
0 1
C 2.3040863429 -0.5250339984 0.0478229398
C 1.1608819968 0.4661300463 0.1124477833
C -0.0911890489 -0.0829222872 -0.3937443389
C -1.4019014299 0.2064238008 -0.0133496955
C -2.5260703421 -0.7629449378 -0.2028540081
C -1.5049350968 1.5541766835 0.1203558008
N 1.2829867000 1.6508176404 0.5749767634
H 3.2161435251 -0.0979558106 0.4628913421
H 2.0620843439 -1.4397871242 0.5919494850
H 2.4975239468 -0.8047731265 -0.9904139099
H 0.0233945119 -0.8450059283 -1.1632371218
H -3.4702487112 -0.2411638285 -0.3514754282
H -2.6108737266 -1.3921281570 0.6862169553
H -2.3350753178 -1.4224123393 -1.0521466996
H -0.7644697927 2.0998050667 0.7170050935
H 2.2079560986 1.7839603000 0.9778420386
