13
0 1
C -2.5377812739 -0.1859412510 0.6007121729
C -1.1382859414 -0.1121652929 0.0880248675
C 2.3855767452 -0.2029006411 -1.0456371320
C 1.5242738750 0.4673496094 -0.3323401696
O 3.2860786965 -1.0653019708 -0.4802605700
N 0.8386971535 1.2465845745 0.3272960683
N -0.4959793850 0.8825942928 0.6082648891
H -2.8298219622 0.5933194123 1.3225756495
H -2.6812817155 -1.1666397189 1.0605307504
H -3.2213017181 -0.1578939231 -0.2507675907
H 2.4081307101 -0.0561768573 -2.1204214590
H 3.3787729379 -1.8316098054 -1.0493354430
H -0.8862691217 1.5548985715 1.2655689666
