10
0 1
O 2.5517531391 0.6111527780 0.3389338987
C 1.7582943078 -0.2828126722 0.3733521387
N 0.3906898628 -0.0612303415 0.5804363380
C -0.2896066629 0.8410788716 -0.1419067720
N -1.6502634350 0.9580011867 0.1519971621
C -1.7453486110 -0.3149138290 -0.1168472896
N -0.5328421580 -0.9616982736 -0.2648872876
H 2.0008379194 -1.3527044052 0.3121462756
H 0.1690065544 1.3804713411 -0.9714471896
H -2.6675199163 -0.8610386561 -0.2951072745
