16
0 1
C 2.1281890145 -0.4476394933 0.1897630897
C 0.9908013379 0.5115501881 -0.0975335469
C -0.1366128469 0.0696095858 -1.0542290468
N -1.1413570336 0.3678043602 0.0021021422
C -2.5425928899 -0.2732760756 0.2961564539
C -0.0991021378 0.6033030422 0.9684487761
O -0.1538791041 0.7205211070 2.1447618238
H 1.7519394099 -1.4419299050 0.4369029127
H 2.7187112774 -0.0920694420 1.0342874922
H 2.7865614948 -0.5353894843 -0.6755034820
H 1.3680834365 1.5091575785 -0.3350392168
H -0.2813978683 0.6467991632 -1.9642741701
H -0.1418871481 -0.9991060558 -1.2740711353
H -1.9351868376 1.1030096267 0.0157068981
H -2.8569315583 -0.6231296554 -0.6876634430
H -2.3799635465 -1.0963225402 0.9923624520
