13
0 1
C 2.3008935510 0.1698304952 -0.3022218709
O 1.2201008758 -0.5706102276 -0.8912174617
C -0.1760538361 -0.3083844014 -0.2887270711
C 0.3734618171 -1.4499529285 0.1503017726
N -2.6816421693 -0.1159741455 0.6421606189
C -2.0648696248 0.8651819032 0.1318540708
N -0.7988746718 0.7602907689 -0.4407475464
H 2.3874602675 1.1099578946 -0.8442369138
H 3.2025356349 -0.4293180152 -0.4181563159
H 2.0952719302 0.3469986528 0.7528043505
H 0.1874357820 -2.4435440281 -0.2305643362
H -3.5841153562 0.1795761393 1.0017082255
H -2.4604442001 1.8812808921 0.0800604775
