16
0 1
C -1.5331764763 0.2049661626 0.8264105296
C -1.7188591021 -0.0676569848 -0.6231223071
C -0.3438267383 -0.1128721240 -0.0714166615
C 0.7413700977 -1.1585846666 0.2376791101
C 1.9354461659 -0.2643748605 0.3110743904
C 0.2593729377 1.0850743413 -0.7394584860
H -1.7911593399 -0.5994624995 1.5258757049
H -1.6945424222 1.2082968424 1.2319510633
H -0.9766069876 1.2545662509 -1.1928879380
H -2.4152413575 -0.7394859473 -1.1291120887
H 0.8332831144 -1.8934215681 -0.5752460587
H 0.5294956806 -1.6959318126 1.1765242885
H 2.7524856764 -0.3392524275 -0.4021630919
H 2.1056232412 0.3250858647 1.2096178058
H 0.8105143638 0.8865885578 -1.6616907908
H 0.5475641461 1.9595868714 -0.1473544699
