14
0 1
N 1.6549529902 -1.5228326231 -0.5917586071
C 1.1553654937 -0.4875748201 -0.1495084224
O 1.6251495657 0.7948777426 -0.1209876787
C 0.5378310433 1.5951879128 -0.6612319927
C -0.6968332478 0.9187046589 -0.1670390637
C -0.8028878523 -1.2623592884 -1.1476498133
C -0.3879796988 -0.4341848245 0.0776829318
H 0.3542966726 -1.9594665488 -0.9417166797
H 0.6438296312 1.5962267013 -1.7539306584
H 0.6186357580 2.6220627194 -0.3037008965
H -1.5526174884 1.4637559221 0.2117382619
H -0.5845580252 -0.7923311318 -2.1076923303
H -1.8052040346 -1.6916914442 -1.1232679010
H -0.7999008077 -0.8799299763 0.9833548500
