15
0 1
O 2.5091547191 0.3075325388 0.1226105888
C 1.6493953263 -0.5690815405 -0.3066173508
C 0.2546105010 -0.2274199297 -0.1558152078
C -0.5278628015 1.0472373942 -0.4070211719
C -1.8575684561 0.2560569455 -0.2600271646
C -1.0325993795 -1.0302874169 -0.2588983266
O -1.2693541819 -2.1935079738 -0.3568645119
H 1.6111000330 0.4499323736 1.3983506052
H 1.8434956780 -1.6429857620 -0.1503279930
H 1.4453426986 -0.4818468955 -1.4408900082
H 0.8349738319 0.2332585338 1.6242927841
H -0.3474019132 1.8643405749 0.2849851754
H -0.3696983832 1.4136140995 -1.4238627013
H -2.5759643964 0.3357434564 -1.0751724137
H -2.3744452765 0.4120606016 0.6876816962
