14
0 1
C -1.1663966353 0.9884994604 0.6938935306
N -1.4760853034 -0.9269162532 -0.1644357591
C -0.2118766924 -1.2541755766 -0.3562715867
O 0.3912246162 -2.1587477088 -0.9419427862
N 0.5395862297 -0.1549415400 0.3596658687
C 1.5986274409 0.4735801880 -0.4220620304
H -0.6169111682 1.3591524312 1.5606560255
H -2.2170336723 0.8408975605 0.9374605606
H -1.0230960996 1.5730471766 -0.2108329472
H -2.1729614569 -1.5555505964 -0.5793275717
H 0.8997615098 -0.5092942747 1.2512402234
H 2.0678847014 1.2752316534 0.1636997729
H 2.3574489900 -0.2643101984 -0.7262717601
H 1.1521145400 0.9029126779 -1.3280475403
