18
0 1
C -1.3860841373 0.5543567662 -1.0778293170
C -1.5839839654 0.7582072444 0.3643008307
C -0.4906855355 0.7605047993 1.3068102049
N 0.4668023789 -0.2640915501 1.1517998893
C 1.3943018154 -0.0457863100 0.2069518725
O 1.5419295379 1.0221013262 -0.4075063432
C 2.3092591860 -1.2137188924 -0.0779606171
H -0.7532604358 -0.3107857689 -1.2717141636
H -2.3263434220 0.4895616937 -1.6205672050
H -0.8048011450 1.4127714011 -1.4446084831
H -2.5226566008 1.2089268308 0.6863570763
H -1.7838967178 -1.1431706811 0.7649653681
H -0.0025783425 1.7075645775 0.9426678959
H -0.8284319772 0.9031157728 2.3338591575
H -1.0012360357 -1.2849848738 0.8928237057
H 2.2646795081 -1.4488092761 -1.1423971278
H 2.0418559451 -2.0899581772 0.5094036303
H 3.3355309434 -0.9213218825 0.1475826257
