16
0 1
C 2.3184068612 0.7681457799 -0.8101242316
C 0.9327812610 0.9552159408 -0.1720581281
C 0.4625355442 -0.2806503802 0.5048903496
O -0.5162712699 -0.1586930239 1.4805992011
C -1.5149175020 -0.9468269684 0.9858894841
C -2.2202464137 -0.7086082939 -0.3135497912
H 3.0590547351 0.4849690195 -0.0505867326
H 2.6548697952 1.6916562628 -1.2999912013
H 2.2916264542 -0.0269630689 -1.5695092314
H 0.9435188768 1.7643082746 0.5789005639
H 0.2203985572 1.2978313370 -0.9522991226
H 0.6044505555 -1.2846078493 0.1040839498
H -1.9379151802 -1.6303375702 1.7247212098
H -1.8105849349 0.1683314436 -0.8303198489
H -3.2973779642 -0.5239958978 -0.1328703630
H -2.1703903754 -1.5585460054 -1.0171901077
