17
0 1
C 1.8331097562 -0.4955459309 -0.0552476223
C 0.6896130668 0.3840243516 0.4151384671
C 0.0071203759 1.3165509861 -0.5937283636
C -1.4498074280 1.1670258806 -0.1112241127
O -2.0734570019 0.0991861702 -0.8028993408
C -1.3867906617 -1.0093852854 -0.2568702780
C -0.5868204511 -0.3163228140 0.8522759500
H 2.1735227813 -1.1620785544 0.7412419714
H 2.6827443658 0.1129252156 -0.3709890307
H 1.5352748675 -1.1130878302 -0.9061787068
H 1.0285815633 0.9872422586 1.2622693544
H 0.3578346288 2.3475820070 -0.5760306775
H 0.0822409488 0.9439125318 -1.6185027619
H -1.4033592081 0.7579858789 1.0734391456
H -0.7574251018 -1.5391711939 -0.9867173578
H -2.1159789430 -1.7224995508 0.1350265883
H -0.6111695586 -0.7776171206 1.8410027753
