15
0 1
C -2.0802236595 -0.1003318084 0.9148766290
C -1.4759992592 -0.3499410463 -0.4577113380
C -0.1479550642 0.2932047865 -0.6782501606
O 0.2505452930 1.2996826847 0.0638176259
C 0.9263474772 -0.2310720715 -1.4938019211
C 1.5024331792 0.2836179157 -0.4138383826
C 2.5264970668 0.1756731155 0.6334133790
H -1.4596732831 -0.5314846024 1.7017539846
H -3.0697871893 -0.5535213855 0.9788416311
H -2.1750638608 0.9666257208 1.1151834829
H -2.1138667965 0.0643086074 -1.2480530085
H -1.3786312306 -1.4113138400 -0.6883989541
H 3.0014039868 1.1423828822 0.8024096257
H 2.0718321468 -0.1530608930 1.5692039253
H 3.2695421934 -0.5541710659 0.3152184814
