10
0 1
C 0.5345726465 0.9204990262 0.1027228181
C 1.2251917070 -0.3179837109 -0.2568057751
N 0.6372488021 -1.4479556894 0.0854912667
N -0.5881166406 -1.5555442067 0.5465571741
C -1.4215012457 -0.5037788205 0.1807624568
C -0.8681830988 0.7590269933 0.2770491868
H 1.0478882652 1.7810951431 0.5459135917
H 2.1423297230 -0.3814326569 -0.8405638177
H -2.4811305387 -0.7311181546 0.0750150865
H -0.1916256199 1.4601110763 -0.7767079879
