18
0 1
C -2.3692480218 -0.1435031639 -1.3271520712
C -1.3960270522 0.2163258344 -0.3517972346
C 0.0524804569 -0.1360130493 -0.5614739558
C 0.9633415480 0.0001457193 0.6636735352
C 2.4132816279 -0.3649589213 0.3407165354
C 0.8812266802 1.3624810815 1.2008874840
N 0.8067230722 2.4370789365 1.5964626515
H -2.2010406301 -0.6845018319 0.0574894008
H -3.2948529033 0.4051877460 -1.3953098134
H -2.1726728435 -0.9608097144 -2.0056585031
H -1.5789305518 1.1415581321 0.1854972709
H -1.5726173576 -0.6346014167 1.0036228505
H 0.1293108580 -1.1529309096 -0.9511023561
H 0.3968410313 0.5330235071 -1.3570780249
H 0.5866568269 -0.6639659234 1.4467699744
H 2.4613951425 -1.3917645797 -0.0242404759
H 2.8208119580 0.2941542521 -0.4271054912
H 3.0415671585 -0.2854606988 1.2272882238
