11
0 1
O 2.2032951624 -1.4353332920 0.0353103538
C 1.1746377436 -0.8238276102 -0.0952988631
C 1.0532055823 0.6321717093 -0.0793549428
C -0.1516085144 1.2088244463 0.0430346656
N -1.2937442298 0.4464257524 0.1070740951
C -1.2546244110 -0.8824576805 -0.1313010582
N -0.0715189828 -1.4828605784 -0.3051717218
H 1.9563761472 1.2246554203 -0.1115666509
H -0.2878030158 2.2824333747 0.0946564763
H -2.1870909040 0.8839857781 0.2465406767
H -1.0419435774 -2.0943583201 0.1982839695
