19
0 1
C 1.9717533392 -0.4739254033 -0.7380759568
C 1.0145417756 0.1533188385 0.1370513275
O 1.2572143138 0.2554000365 1.4589644091
C 0.0918582032 1.2253347446 -0.3677508360
C -1.2913695557 1.0860674099 0.2519073398
C -1.7519169952 -0.3370510614 -0.0646830304
C -0.6070547540 -1.2785165057 0.2471969316
H 2.7775464109 -1.0338685658 -0.2777648759
H 2.1538750357 -0.0134848682 -1.6984893590
H 0.7240198533 -1.0971351541 -0.4729490989
H 2.0657397556 -0.2243775665 1.6590213466
H 0.5691269193 2.1787241457 -0.1286524830
H 0.0275477655 1.1417174363 -1.4545405013
H -1.2246660523 1.2326226446 1.3333673636
H -1.9754566390 1.8422143382 -0.1389911388
H -2.0023114856 -0.3969276369 -1.1292139538
H -2.6686679751 -0.5799257412 0.4822369328
H -0.6388173542 -2.1990598330 -0.3508911796
H -0.5347705611 -1.5442052583 1.3014227629
