17
0 1
C 2.1493861045 0.4006568626 -0.6679877832
C 0.9964002609 -0.4661917837 -0.2269055988
C 0.2983665920 -0.0205266733 1.0576706393
O -1.0483117339 -0.4676367079 0.8784275842
C -1.1876155691 -0.9646866356 -0.5990606398
C -2.2764822855 0.5882462538 0.1921101318
O -0.0619196546 -0.3892143240 -1.1714583195
H 2.5576637764 0.0334392519 -1.6094811260
H 2.9468487324 0.3956649792 0.0773400508
H 1.8119776538 1.4280974404 -0.8152382068
H 1.3141784569 -1.5142511841 -0.1212587534
H 0.3098345061 1.0692188533 1.1668781383
H 0.7019074222 -0.4825495264 1.9598794741
H -1.0351539116 -2.0552620435 -0.5080256493
H -2.2058405829 1.2338976584 1.0763055116
H -2.0272310522 1.1224762069 -0.7158468629
H -3.2310447155 0.0857863720 0.1386804096
