15
0 1
C 1.3258814818 -0.5007407328 -0.8488719065
C 0.6916300813 0.2868122793 0.2748647570
C -0.6808011692 1.7883732862 -0.1265313157
N -1.5730450307 0.6805655668 0.0040414661
C -0.7021737399 -0.2064144397 0.7548792979
C -0.9554368067 -1.6407235276 0.5525609977
N -1.1261823065 -2.7605204453 0.3728944140
H 0.6303359791 -0.6375327645 -1.6802430468
H 2.2195666210 -0.0032733632 -1.2255231361
H 1.6100143188 -1.4940135563 -0.4923820629
H 1.3859595995 0.5207682434 1.0792145153
H 0.4551872697 1.3578802463 -0.4448833154
H -0.5195223715 2.2211411344 0.8694155817
H -1.8287677546 0.2953666391 -0.8959781535
H -0.8154661722 -0.0012635659 1.8236039073
