19
0 1
C 2.2726735908 0.1054390881 1.5847893092
C 0.9413275611 0.5396504119 0.9667020479
C 0.3888843651 -0.4763892918 0.0080396233
O 0.5018925341 -1.7725457536 0.3615391942
C -1.2825575331 0.7790361583 -0.7541675278
C -1.7770618734 0.2655796249 -2.0740371918
O -1.4661018572 -0.3561749580 0.2638029954
H 2.1756203608 -0.7747925123 2.2235558827
H 3.0150825599 -0.1220025380 0.8179640233
H 2.6649316315 0.9135507427 2.2028952250
H 0.1994485893 0.7184617598 1.7478259532
H 1.0372890812 1.4716716057 0.4159787242
H 0.6202580880 -0.3825657839 -1.0411886935
H 0.3604805829 -1.8697099088 1.3098691198
H -1.9386296079 1.5780155775 -0.3929937037
H -1.1156168422 -0.4916445782 -2.5190315402
H -2.7867304083 -0.1914405429 -2.0255453059
H -1.8401093127 1.0920300954 -2.7857743146
H -2.0470095102 -1.0412141968 -0.1011218206
