15
0 1
C -1.1629401962 -1.1094866051 0.6082497215
N -0.3273407746 -0.4517913604 -0.4175158554
C 1.0211751581 -0.9840562004 -0.4117720222
C 1.8274934302 -0.0212869605 0.0729371076
C 1.1100100685 1.2180013099 0.2940352911
C -0.1555860849 0.9912837273 -0.1643106621
N -1.2439179906 1.4641909289 -0.7542702446
H -2.1179193681 -0.5874875792 0.6611425905
H -1.3287250930 -2.1451804078 0.3130368587
H -0.6579750866 -1.0798854104 1.5749041525
H 1.1937269111 -2.0308261719 -0.5979013487
H 2.8883884931 -0.1514886700 0.2393449815
H 1.5501094769 2.1762798970 0.5116340263
H -1.4181948603 2.4530499660 -0.8153183090
H -1.1336170837 0.1510745364 -1.2008952875
