10
0 1
N 2.3300650480 -0.1772255250 0.6084940420
C 2.1990077155 -0.3098320483 -0.5658479488
C 0.6970773358 -0.0185255975 -0.1419100516
C 0.1059580483 1.1946460334 -0.0025770763
O -1.2222549756 1.0411215257 0.1109966185
C -1.4820990131 -0.2907390917 0.0644774741
C -0.3450339385 -0.9978303911 -0.0780202136
H 0.4963918982 2.1971214996 0.0252726105
H -2.5188012996 -0.5710275907 0.1431204575
H -0.2400538190 -2.0668368144 -0.1520149122
