11
0 1
C -1.8318221352 0.7911187975 -1.0022146771
C -0.7789783488 0.1171026530 -0.5212452394
O 0.4879219671 0.6429415568 -0.5251729029
C 1.4708108984 0.0254514482 0.2616017973
N 1.3623194774 0.0886053834 1.7790167240
C 1.2238506370 -1.0383646483 1.1975423980
H -1.7324720509 1.8060049302 -1.3826451742
H -2.8103288945 0.3179532781 -1.0247596523
H -0.8657357510 -0.9006076152 -0.1314021511
H 2.4454026891 0.2282284751 -0.1799684533
H 0.9993025116 -2.0702772589 1.4744873309
