12
0 1
O 2.5799899740 -0.3423842388 -0.5726032641
C 1.2875124830 -0.2889056496 -0.6064423543
C 0.6043710499 0.3145731881 0.5422889107
C -0.5478678892 1.2252130717 0.1740488698
N -0.7763411212 -0.0402680327 0.7716813464
C -1.4159540441 -1.0829606581 0.1066201030
O -2.4134869283 -0.9478715460 -0.5417921242
H 1.9999517427 -0.7419746465 -1.5196962513
H 1.2177134899 0.5326687617 1.4144397040
H -0.7869143932 1.3275734270 -0.8792276881
H -0.7119818266 2.0953971021 0.7968955162
H -0.9488405371 -2.0597827788 0.3117992318
