10
0 1
C -0.7417702879 -0.8046559365 -0.1147005923
C -0.4323294688 0.7174830876 -0.1480793784
N 0.6032455909 0.9589254066 -1.0179289866
C 1.1224190986 0.1590221386 -0.0309153952
O 0.6308441439 -1.1845457838 -0.0398534518
H -1.2666809288 -1.1481687986 0.7791403722
H -1.2339134420 -1.1424486317 -1.0273731721
H -1.0584175961 1.5144086935 0.2572414371
H 0.4079055790 0.5304006363 1.0493814849
H 2.1089693111 0.3434021881 0.3874266823
