12
0 1
C -2.5945381802 0.1289690339 0.3638783676
C -1.3334085118 -0.6516961397 0.2406594703
C -0.0937694036 -0.2479990934 0.2352437217
C 1.2663661382 -0.2504898770 0.0079984691
C 2.6582382724 -0.1419671485 0.3808650789
O 2.1474684104 -0.3024992137 -1.0253700752
H -3.2553132149 -0.1243099163 -0.4811971230
H -3.1416254518 -0.1914816671 1.2650787576
H -2.4888942685 1.2297067215 0.3944694837
H 0.3446710911 0.8954513838 0.4361941663
H 3.1941877485 -1.0171169943 0.7578047445
H 3.1178593702 0.8301649107 0.5743129385
