15
0 1
C -1.9212091656 -0.9220150958 0.3028474506
N 0.2211788485 -0.6747230664 0.2650671913
C 1.5325918514 -1.0025581155 0.3645571714
C 2.2985832756 0.0839465168 -0.0334028777
C 1.4025635904 1.1204521611 -0.3895372586
C 0.1503420445 0.5797002992 -0.1785333213
N -1.2014235477 0.9796358500 -0.3032217423
H -2.8320214958 -0.3480339965 0.4158354088
H -1.8721448933 -1.4927780678 -0.6115099278
H -1.6628579074 -1.4762185898 1.1894895551
H 1.8525093922 -1.9769923842 0.7023743920
H 3.3776287085 0.1242642151 -0.0653352597
H 1.6445667441 2.1109790256 -0.7423534509
H -1.4977609463 1.7110961007 0.3323272534
H -1.5093674991 1.1980521477 -1.2439675845
