17
0 1
C -2.3710871205 -0.5132303952 -0.2379588856
C -1.1522494168 0.3416881685 -0.5555635584
C 0.1448236146 -0.2889930954 -0.0628109276
O 0.3013036249 -1.5159824111 -0.7232563170
C 1.2951321282 0.6777630194 -0.3529100783
C 2.9148757027 0.8269817596 0.4104453159
O 2.5438278781 -0.3958195296 0.2392604404
H -3.2820892264 -0.0407963284 -0.6079604601
H -2.2840057954 -1.4960529804 -0.7001927867
H -2.4809970276 -0.6555474154 0.8397529887
H -1.0725518038 0.4938029453 -1.6364904212
H -1.2598333535 1.3291886394 -0.0967163761
H 0.0823026016 -0.4329069483 1.0257311022
H 1.1638675004 -1.8684538675 -0.4895850371
H 1.0791577568 1.6072216259 0.1956168357
H 1.5018461348 0.8295952255 -1.4038762535
H 2.9022778018 1.0777115877 1.5112474189
