17
0 1
C -2.1077958716 0.1697490086 -0.0343045636
C -0.6143695753 0.1745632127 -0.0271472543
C 0.3724870886 0.3518725837 -1.2058234645
C 1.3631766154 0.0207364006 -0.0407586937
O 2.5863129494 -0.3552064945 -0.0530415505
C 0.3505873072 -0.8350701166 0.5488188138
C 0.3116296652 1.0352672300 0.8447771583
H -2.4875162912 -0.6346246347 -0.6657894235
H -2.5059266774 0.0312341559 0.9725535353
H -2.4909766333 1.1143158231 -0.4231964960
H 0.4235334921 1.3470267608 -1.6507534537
H 0.3400390316 -0.4338709980 -1.9612222250
H 2.1153641634 -1.6566562993 -0.1765195997
H 0.3116358252 -1.2987899378 1.5302702586
H 1.2851668455 -2.1266676839 -0.1462132307
H 0.2257727289 0.9974516304 1.9286545302
H 0.5153423363 2.0313733591 0.4616706589
