13
0 1
O -2.2564755655 -0.2725106316 0.3624022763
C -1.1022771173 -0.0328645388 0.7491231241
C 0.3018645050 -0.9595542474 -0.5019919587
O -0.5718494256 0.0194792995 -1.3749663472
C -0.2671092881 0.8655783090 -0.1767436709
C 1.1204827994 0.2460569887 -0.1185170199
O 1.7840863063 0.2141301551 1.1068418032
H -1.5362142600 -0.2259779782 -1.1454484437
H -0.8041978638 -0.1559371089 1.7948433018
H 0.6606715221 -1.7715611659 -1.1347829862
H -0.5254665553 1.9134532621 -0.3300581165
H 1.8070101770 0.6560964109 -0.8635543718
H 1.4045927658 -0.4934927544 1.6346254095
