10
0 1
C 0.7420963370 0.8670513148 -0.0947312766
C 1.5380692724 -0.3827827959 -0.1603432339
N 1.0234336980 -1.5476286381 -0.0896160845
N -1.4070240154 -1.7024445514 0.1754841214
C -1.1174016428 -0.5404261569 0.1300502513
C -0.6080363359 0.7852029230 0.0549917217
H 1.2253157590 1.8435677390 -0.1635950247
H 2.6324252261 -0.2388733272 -0.2760649637
H -2.7215746911 -0.7142594447 0.3071281531
H -1.2932556074 1.6247109374 0.1163453359
