13
0 1
C -1.8203044938 -0.4576680383 0.0877017763
C -1.4207546238 1.0361525401 0.1197748611
C -0.0574174460 0.4198618800 0.0754442111
N 1.2131322929 0.9766222502 0.0251003323
C 2.0500567274 0.0381050270 -0.1612990947
C 2.3892101145 -1.1794643738 -0.5480016440
N -0.3776447146 -0.8247969190 0.0727703531
H -2.3449334014 -0.7851751974 -0.8105734962
H -2.3384754688 -0.8327013165 0.9712160653
H -1.6951390879 1.6370161141 -0.7468732792
H -1.6586723141 1.5785273153 1.0344388336
H 3.2061783399 0.1939269659 -0.2829249867
H 2.8296680754 -1.8906792474 0.1489200676
