17
0 1
C -2.1206478541 -1.0774449743 -0.8438147960
C -1.7592935849 0.0828238732 0.0288210287
C -0.8035159765 0.0717185369 0.9522822860
O -0.0584079574 -1.0337096227 1.2214344104
C 2.4432593181 1.0318073547 0.3174980790
C 2.3407327824 0.2587981354 -0.7602376020
O 1.2483236007 0.0478105210 -1.5133266444
H -2.1749181032 -0.7778021515 -1.8928522108
H -1.3895303103 -1.8791378423 -0.7497597389
H -3.1010612683 -1.4772542183 -0.5722415929
H 0.4632399018 0.4147913265 -1.0818470810
H -2.3357446058 0.9970556097 -0.0580581649
H -0.6029994216 0.9448286046 1.5678874893
H 0.8177120180 -0.7649877960 1.5137980131
H 3.3926228439 1.1144963369 0.8261150447
H 1.6165002871 1.6342316203 0.6755339407
H 3.1908223299 -0.2941523141 -1.1456214611
