17
0 1
C -2.3773197100 0.2000438205 -0.1027609427
C -1.5859850346 -1.0625329297 -0.2610264622
O -0.2624272905 -0.9355805564 -0.7873420707
C -0.4222435923 -1.3629471090 0.5657843490
C 2.7764342234 0.3937477877 0.2202644889
C 2.0364615810 1.4941504075 0.1422498381
O 0.8197284402 1.6139238092 -0.4223139692
H -3.2339651749 0.0223162718 0.5502512479
H -1.7651086426 0.9922518315 0.3296066892
H -2.7525398355 0.5418011830 -1.0688088223
H -2.1193006559 -1.9080274546 -0.6892693791
H 0.5092904861 0.7433432501 -0.7317343374
H -0.1009199778 -0.6402735928 1.3106667957
H -0.1352594051 -2.3925670172 0.7519273105
H 2.4504942523 -0.5483936102 -0.2046522985
H 3.7412407259 0.4309706577 0.7046955212
H 2.3763956106 2.4403402509 0.5505240414
