16
0 1
C 1.8337855803 -0.2382911543 -0.6988943156
C 0.9584901259 0.1218490864 0.4505259591
C 0.0752664503 -0.7515792559 1.2090682443
C -0.8592162078 0.0285292249 0.4293335644
C -2.0004704408 -0.5393436949 -0.3447258993
C -0.3835436125 1.3288176621 0.2251095793
N 0.9075322358 1.4652462905 0.8848766066
H 2.7581952504 -0.6428997029 -0.2769030560
H 1.3823506975 -1.0187448935 -1.3109946242
H 2.0856333028 0.6328271246 -1.2998011119
H 0.0693422972 -1.8089443854 0.9548705700
H -2.6424934217 0.2508238230 -0.7375686461
H -2.5881254836 -1.2007658979 0.2921299690
H -1.6276766909 -1.1315370079 -1.1835146235
H -0.7411468449 2.0553423781 -0.4891863771
H 0.7622517619 1.4562264031 1.8994191611
