16
0 1
N 2.7269294179 0.5803890180 0.3830896852
C 1.5134734813 0.3291113215 0.1498618441
C 0.8498821281 -0.9090746688 -0.0140213579
C -0.5242406634 -1.1985425886 0.5288615409
C -1.3450231645 -0.4355607418 -0.5167452016
C -0.6223734624 1.3952123820 -0.0457513760
O 0.6682017749 1.4861059305 -0.2014508851
H 2.9436211956 1.5572375974 0.2045697875
H -0.3354681050 -0.1230113019 -1.1261050165
H 1.5330436825 -1.7299096869 -0.1879193113
H -0.7120655065 -0.8556813205 1.5525200483
H -0.7340459936 -2.2674798852 0.5161857535
H -1.5570158085 -1.1447937537 -1.3274813307
H -2.3182872226 0.0248902512 -0.3087723728
H -1.0031050941 1.2449989904 0.9638282773
H -1.1910756599 2.0580034561 -0.6908730848
