15
0 1
C -0.8917049945 0.9128862762 0.6206081207
C -0.1951815850 -0.1203549832 -0.8386304406
C 1.3216285545 -0.2018202150 -0.6859591617
C 1.9723412693 1.1017463718 -0.5858388215
N 2.4784682854 2.1269252410 -0.4924500887
C -0.8636689254 -0.9299704363 0.6333828298
N -0.7194439761 -1.4512200631 -0.6730730603
H -0.9057048414 0.8864070932 1.7184173828
H -0.1384156770 1.6554629958 0.3713948184
H -1.8565123417 1.2450140617 0.2516686491
H 1.6413118884 -0.6660549426 -1.6232696580
H 1.6978925932 -0.8476430087 0.1169718590
H -1.8650021751 -0.9860027930 1.0409033718
H -0.0798432534 -1.2145871818 1.3251229713
H -1.6215038212 -1.5148354161 -1.1303097721
