13
0 1
C -1.9147790851 -0.6658609971 -0.0276267376
C -0.5968609286 -0.1067335260 -0.5374104952
O 0.2219662904 0.1978840461 0.6078501313
C 1.4141762153 0.8466772043 0.2898783427
C 2.9921494112 -0.7226954283 -1.1064434928
N 2.3246861194 0.0187114064 -0.4624142359
H -2.4314071357 0.0697093278 0.6024993552
H -2.5652763949 -0.9204913682 -0.8752045142
H -1.7429927607 -1.5741224702 0.5643067942
H -0.7563396752 0.8132954258 -1.1291849020
H -0.0780632257 -0.8369463646 -1.1789623115
H 1.8959577227 1.1115876311 1.2385725708
H 1.2460034470 1.7600991129 -0.3079585050
