11
0 1
N 1.9994497815 0.3416564452 1.2416301493
C 1.8200770776 -0.4253865532 0.3165902166
C 1.0640960802 -1.1100928800 -0.5797612025
C -0.5760741475 0.2568604315 0.6221349605
C -1.5250653623 0.9166755770 -0.3245579179
O -1.8476830850 -0.0991025033 0.7011389206
H 0.8417130118 -2.1605041317 -0.3903457299
H 1.0345110520 -0.7782406926 -1.6182543965
H 0.8435054029 0.5699344231 1.3741002488
H -1.9231222093 1.9073479306 -0.1022767239
H -1.6165956019 0.5546209535 -1.3486145251
