11
0 1
O -1.6485021909 1.9179791210 0.0917139462
C -0.6302781350 1.2295892001 0.1255630777
C -0.9835769347 -0.3258785650 -0.2129570072
C 0.2748383837 -1.0090664293 -0.1410916691
C 1.4876433766 -1.1022253267 0.0317843796
N 0.6299453630 1.4190699224 0.3576976014
H -1.4251406676 -0.3721066078 -1.2067485941
H -1.6938516292 -0.6867425021 0.5287719390
H 0.6610882687 -2.1732082086 -0.2930163204
H 2.5330508004 -1.2902224413 0.1635366281
H 0.7943993649 2.3982028373 0.5624150187
