15
0 1
O -0.8217520168 1.5306872284 -0.4956120366
C -1.5108583549 0.3110364313 -0.6295579095
C -0.9978098876 -0.6594798066 0.4118632761
C 0.7222107692 -1.1877656117 0.8485616676
O 0.5443356239 -0.9562504482 -0.4090580222
C 1.7705458919 -0.2937731852 1.4680793734
O 2.3028194109 0.6989518851 0.6376821909
H -1.1194890539 2.1411374262 -1.1708666395
H -1.4168779788 -0.1118126763 -1.6332208480
H -2.5812728083 0.4353247763 -0.4031849483
H -1.5078849335 -1.6121850852 0.4152617960
H -1.0329977694 -0.1570197677 1.3830192023
H 1.3445401630 0.1352291533 2.3853255229
H 2.5633742982 -0.9811876066 1.7952700453
H 1.7707266460 0.6976492868 -0.1685396703
