9
0 1
O -2.4307930133 -0.7446242453 -0.0215261776
C -1.1655994261 -0.3095727827 -0.0939413294
N -0.1005274786 -0.9258374271 0.0683797165
N 1.0861657442 -1.2691989739 -0.1293545917
N 2.1676565580 2.5642714779 -0.1011123121
C 1.1318322421 2.0447265186 -0.2356965476
H -2.4662494645 -1.7242163265 0.0639399782
H 1.5830643261 -1.2552422511 0.7827011471
H 0.1712225121 1.5534000101 -0.3392618835
