14
0 1
O 0.9199910416 0.6831410732 1.4798892160
C 1.2352537186 1.2526286965 0.4063631515
C 0.8940088169 0.7702670311 -0.8518430718
C -0.0526096539 -0.3629903480 -0.9779448363
C -0.1473912126 -1.3355555218 0.2256538675
C -1.0157958915 -0.2334457831 0.7854284288
N -1.1422685105 0.4946218563 -0.4022306111
H 1.7594608908 2.2203023798 0.4464444009
H 1.0727623041 1.3752335903 -1.7297738562
H -0.2092079322 -0.7327801860 -1.9878804850
H 0.7624017786 -1.5556296849 0.7704117968
H -0.6941820364 -2.2533284197 0.0000961079
H -1.3668170208 0.0794767719 1.7602827123
H -2.0590992927 -0.2974194558 0.0135631790
