21
0 1
C -0.5062195755 1.6587137704 0.3054396424
C -0.3613980418 0.2180365792 -0.0845282113
C -1.3408462242 -0.3182422622 -1.0863946559
C -1.3156722427 -0.6256676515 1.6782097611
C 0.9425900548 -0.3636272630 -0.0413493206
C 2.2978417873 0.1750937247 -0.2309292611
C 1.7903217712 -1.0036276531 -1.0591228949
H 0.1258444437 1.8985443119 1.1584070140
H -0.1532543534 2.2510588126 -0.5447938038
H -1.5379807189 1.9343278955 0.5189055818
H -2.3703459548 -0.0437384008 -0.8604056574
H -1.0680077109 0.1130549816 -2.0551004315
H -1.2581639626 -1.4000738825 -1.1756147858
H -0.8307247319 -0.3650229297 2.6231738397
H -2.2659649400 -0.1030393879 1.5939705182
H -1.4746781053 -1.7046646247 1.6006709667
H -0.0399008988 -0.6451166831 0.9529511537
H 2.4414135248 1.1105919993 -0.7674859726
H 3.0611738999 -0.0187550680 0.5162725283
H 2.2160654197 -1.9839647802 -0.8678306390
H 1.6145895596 -0.8057394885 -2.1146213718
