11
0 1
N -1.9386473393 -0.5401086222 -0.3721449248
C -1.1176452108 0.3341109919 0.2194133146
C -0.5573458605 1.2286964301 0.8239253338
O 1.9990180287 0.9071955492 -1.0457527694
C 1.8232098199 -0.1156271714 -0.4598277629
O 2.3918677132 -1.2153327432 -0.2346647655
N 0.6883712835 -0.6061730767 0.2867068250
H -1.4740330364 -1.3181603067 -0.8132526718
H -2.6973398308 -0.1406532813 -0.8998363090
H -0.0082531066 2.0521203952 1.2170006661
H 0.9005885392 -0.5821921647 1.2827980641
