12
0 1
O 0.0935794833 -0.2279498737 2.1361326174
C 0.7455297035 -0.1177655200 1.1580382659
C 2.0838874889 -0.1957576191 0.6937669911
C 2.2097543096 0.0623338477 -0.5789366378
C -0.3487998938 0.2422795618 -0.2080466782
C -1.6686668548 -0.4629094838 -0.4227553422
N -1.4508096652 0.9327469434 -0.1649000218
H 3.0948878931 0.1007256825 -1.2004719570
H 1.1894469068 0.2864231493 -1.0936012316
H -2.0073068038 -1.0973394297 0.3906218548
H -1.9982985188 -0.7189043540 -1.4218000075
H -1.8141070488 1.6486600956 0.4421831468
