14
0 1
C -2.6207387469 0.9657455334 -0.5318485581
C -0.7410655611 -0.9609325405 0.1781736285
C 0.3855356523 0.0162435497 0.0140284610
O 0.1960078143 1.2136941766 -0.1963185606
C 1.8191401011 -0.4904497758 0.1246280387
O 2.7559850148 0.5487224459 0.0501305416
H -2.4484673917 1.6514731817 0.3352179633
H -1.7164248356 -0.4871379561 -0.1895188103
H -2.1112730415 1.5233156888 -1.3552550126
H -0.5718340055 -1.9029559223 -0.3626835398
H -0.8809736142 -1.1993023175 1.2439373995
H 1.9170910320 -1.0508060486 1.0734130049
H 1.9607313996 -1.2308199788 -0.6888349255
H 2.2206251825 1.3551309633 -0.1238806305
