14
0 1
C -1.5819531305 -0.3439707166 0.2385324670
C -0.8094649769 0.7209709171 -0.5212051531
C 0.2533755765 1.4055129345 0.0158540256
O 1.9952249340 0.3430829055 -0.1354924769
C 1.7951411567 -0.7701110447 0.4101456466
N 0.6415748617 -1.3925000547 0.5022110346
C -0.4036593650 -1.0361477490 -0.2601504615
H -1.6167179095 -0.2141288350 1.3154058036
H -2.5404061992 -0.5826135249 -0.2085481247
H -1.0819310151 0.8939961484 -1.5530855057
H 0.4327817740 1.3945435217 1.0824169280
H 0.6980201695 2.2247420262 -0.5294577479
H 2.6323226909 -1.2481763244 0.9310548776
H -0.4285535670 -1.3973322042 -1.2871603133
