9
0 1
N -1.0326822372 -0.6119268222 0.0054319069
C -0.7138990416 0.7156844183 -0.0106984953
C 0.6737341031 0.7727071465 -0.0082452688
C 1.0869651558 -0.5832334633 0.0099348680
N 0.0416913555 -1.4274951875 0.0182819651
H -1.9572353371 -1.0269967962 0.0084394748
H -1.4772434278 1.4852552785 -0.0220188534
H 1.2861311895 1.6652021885 -0.0182973796
H 2.0925382398 -0.9891967627 0.0171717823
