15
0 1
C -1.2512785148 0.2385927791 -1.5360441948
C -1.1572279198 -0.4161315303 2.0362095807
C -0.1167992956 0.1137764539 -0.8730366821
C 0.8301579209 -1.0462170727 -0.5582849744
C 1.5342371352 -0.0959340379 0.4164576836
O 2.0045660828 0.9950195245 -0.3477783869
C 0.6351261126 1.0177515512 0.0555664070
H -1.6661299810 -0.5836989705 -2.1064505623
H -1.8054967437 1.1699766118 -1.5238406446
H -1.0436937507 0.5795470097 2.5116215419
H -2.0744682825 -0.2894846838 1.4275326347
H 0.3178409030 -1.8735657887 -0.0682895399
H 1.4603780007 -1.4058517417 -1.3713336443
H 2.0217995881 -0.3161988146 1.3553123440
H 0.3000167448 1.8867987100 0.6068564376
