10
0 1
C -1.7666193449 -0.3655036380 -0.2312841418
C -0.4123117348 -0.2679137978 -0.3270112117
N 0.4733113034 -0.7918554242 -1.2637743883
O 1.7788830056 -0.3375109724 -0.8139516356
C 1.6596320699 0.3730769209 0.2636319133
N 0.3881764020 0.4661669040 0.6221751834
H -2.3255223853 -0.9273629645 -0.9714305129
H -2.3051181156 0.1185382012 0.5789742229
H 0.0266287958 0.9657217768 1.4275593915
H 2.5246190038 0.8028989940 0.7539831792
