19
0 1
C 1.0293469824 0.4301837715 -1.9158326095
C 1.4240725817 -0.7635103366 0.2353779595
C 0.2808640615 -0.7653784313 1.0371419176
C -0.2003416155 0.5436191321 1.6785371959
C -1.4866084051 0.5691373582 0.8715629139
C -1.3001190949 0.3698004690 -0.6015139930
C -1.3192296731 -0.7670097096 0.1898600659
H 1.6227730068 -0.4376217837 -2.1780003873
H 1.6681049461 1.2650144897 -1.6383535533
H 0.4200976274 0.7103906331 -2.7779127619
H 1.8423705805 -1.6955847891 -0.1259651426
H 2.0604879771 0.1045051521 0.1859777055
H 0.1264486456 -1.6644888861 1.6282824406
H 0.4761354666 1.3905126423 1.5372046848
H -0.3843742654 0.4244943467 2.7479795648
H -2.4208383684 0.9587030255 1.2638520359
H -1.9824025752 0.6500877783 -1.3881420755
H -0.0284675731 0.4195133951 -1.1257569641
H -1.8685093051 -1.6948062574 0.1398620028
