8
0 1
O -2.9239280584 -0.9397803914 0.1718117568
C -1.8649141993 -1.0281607907 -0.4309226034
C -0.6604207401 -0.3115576772 -0.0588552124
C 0.3779725946 0.2716935141 0.2020948778
C 2.5174204657 1.0334862771 -0.2019296454
O 1.4330221881 0.9443018795 0.6284810590
H -1.7435680842 -1.6764511589 -1.3264982897
H 3.1869228334 1.6428353475 0.4636430574
