13
0 1
N 1.4763232670 0.9434815480 0.1154580129
C 0.5874868719 0.3217995576 -0.6367700369
C 0.0351833163 -0.9866503123 -0.3074068337
O 0.8160698383 -2.0765123262 -0.2647210954
C -1.1909149914 -0.6855481717 0.1580862420
C -1.4969084040 0.7631792090 -0.0478231299
N -0.4532363304 1.1185259896 -0.9743786038
H 2.1167117157 0.2996652851 0.5706895978
H 0.4764982429 1.2617266952 0.9652415406
H 0.3399291046 -2.7973413787 0.1562760524
H -1.8458203969 -1.3405174353 0.7175200665
H -0.6413174336 1.2186193369 1.0300645259
H -0.2422218004 2.1048620031 -1.0214723384
