16
0 1
N 2.1794172302 0.3121103379 0.7832745328
C 1.0452884703 0.1446008812 0.1305875823
C 0.8949152668 -1.2124986633 -0.5874197371
C -0.2426506302 -0.6309019260 0.6081017651
C -1.4610462532 0.0226718806 0.0247711002
C -0.9025267145 1.4027973687 -0.3586201641
O 0.4527457329 1.2080186267 -0.6718450368
H 2.1540852242 1.2025716857 1.2689881673
H 0.5728674056 -1.1624156588 -1.6202583886
H 1.6505731108 -1.9173694382 -0.2677142268
H -0.1810382371 -1.1251868831 1.5672952119
H -0.0954565981 -1.7448749528 -0.1000637361
H -1.8572315179 -0.5052473813 -0.8465763382
H -2.2552953786 0.0745650991 0.7696950309
H -1.0061236608 2.0983150693 0.4852715173
H -1.4055414503 1.8337749543 -1.2247652802
