14
0 1
N -2.4774521211 -0.5386439336 0.0438816053
C -1.1636151843 -0.1140916480 -0.0916137877
C -0.0131492626 -0.8972363113 -0.0240987482
C 1.0779136639 -0.0278258378 -0.0303209462
N 2.4171554570 -0.3848304084 -0.0312217440
C 0.5713567691 1.2734162948 -0.1063042522
N -0.8986310438 1.1966783515 -0.2096953385
H -3.1406400129 0.1073665957 -0.3529618967
H -2.6432116656 -1.4854740069 -0.2532410576
H 0.0242621958 -1.9738658714 0.0666885252
H 2.6213489747 -1.2629413882 0.4149721440
H 3.0484349638 0.3408480886 0.2620329767
H 1.0562879835 2.1684366500 -0.4633238430
H -0.3093547174 1.5753944250 0.7985103630
