15
0 1
C 1.6160158776 -0.1729512407 -0.6296822569
O 0.3309405254 -0.5848971209 -0.1229835084
C -0.6436520528 0.5859755603 0.3272627075
C -1.0098418018 -0.8535239971 -1.2326114108
C -0.5490791007 0.6570152164 1.8266380642
H 2.2447325560 -1.0616184356 -0.7724797327
H 2.0668898678 0.4952236857 0.1156924266
H 1.5031545132 0.3618216775 -1.5859899277
H -0.2204126524 1.4833888627 -0.1541428756
H -1.7865592383 -1.3699132726 -0.6759197709
H -0.4061512935 -1.5465945756 -1.8467686341
H -1.3958921829 -0.0297444446 -1.8311849644
H -1.0946206670 1.5488413820 2.1738349868
H 0.4928423296 0.7358442225 2.2081307706
H -1.0066216802 -0.2195355198 2.3119961259
