8
0 1
N 2.8431941898 -0.2726025080 0.3667231273
C 1.6947151692 -0.2917465406 0.3031261529
C 0.2905218005 -0.2822187507 0.2190658777
C -0.5174592926 0.8876410600 -0.0391126804
O -0.4673226182 2.0229528256 -0.2375477231
N -1.7243584756 -1.1392516160 0.2486859904
N -0.5608258879 -1.3281806581 0.3537059743
H -1.7569188852 0.1316301879 0.0183422809
