11
0 1
N -1.8247947120 -0.0592015936 -0.3345317897
C -0.4710100253 0.0516827287 0.0096820237
C 0.6017678263 -0.8544878551 -0.2159093021
C 1.7400963150 -0.0557796725 -0.1579039224
N 1.4520784900 1.2452288125 0.1195015706
N 0.1237063471 1.3868563672 0.2037757207
H -2.3284022519 0.8040298605 -0.1297140388
H -2.2901771024 -0.8525151243 0.1044046606
H 0.5260588693 -1.9187716382 -0.4098044514
H 2.7743766448 -0.3686541237 -0.2773269973
H -0.2899134010 0.5557992384 1.1766425261
