10
0 1
O 2.2393787019 -0.1959509554 1.5885271085
C 1.9721931779 -0.2455796023 0.4021652993
C 0.5924560257 -0.1147234627 -0.1851684380
C -1.7248366220 0.1891288485 -0.0801907617
N -0.4310472280 0.0702543324 0.5589431054
H 2.7641447732 -0.3976730378 -0.3735265338
H 0.5398404212 -0.1888121592 -1.2903850161
H -1.7094278324 0.1055871517 -1.1830909793
H -2.3878848140 -0.5858000444 0.3336793720
H -2.1628966034 1.1579639290 0.2036688437
