15
0 1
O 2.4614065287 0.9957163248 0.7874371783
C 2.1197559018 0.3733372370 -0.3491523186
C 0.3915154598 -0.7307294297 0.4522580553
O -0.2058873056 0.3726559842 1.1429280542
C -1.4549105086 0.0796413285 0.5109419565
C -1.3732103394 0.2625786637 -0.9556809926
C -0.8589966795 -1.0131433085 -0.3359670520
H 1.7992136113 1.6508230227 1.0476851673
H 1.4140622916 0.9626065738 -0.9497720464
H 1.5871501645 -0.7176635925 -0.1751267069
H 0.6902376095 -1.5064555421 1.1638835454
H -2.3466360212 0.1210029202 1.1208802689
H -0.6924157710 0.9952706996 -1.3717165129
H -2.3108807198 0.1472058531 -1.4850198991
H -1.2364022223 -1.9908987349 -0.5918046973
