17
0 1
C 2.7776178292 0.1867013883 -0.2476237788
O 1.5493889713 -0.0013815364 0.4602190085
C 0.4682243210 -0.1658466628 -0.2136490441
C -0.8046182881 -0.4662690006 0.5035035856
O -1.0615842962 0.3412543886 1.5149532657
C -1.9929417031 -0.6842227656 -0.4639407610
O -2.6888856363 0.5139836247 -0.6558416977
H 3.5735127694 -0.1084571199 0.4296662488
H 2.8737296099 1.2427168657 -0.5012217838
H 2.7969540537 -0.4261895154 -1.1506159285
H -0.1406888113 1.7418757365 -0.1568293282
H 0.5916406909 -0.3897949351 -1.2802256332
H -0.4850118497 -1.5054863554 0.8163248979
H -0.4941527945 1.5549955005 0.5535356653
H -2.6418850472 -1.4495738056 -0.0190583474
H -1.6654912890 -1.0532869047 -1.4427109588
H -2.6552285304 0.9497530971 0.2083195896
