12
0 1
O 1.5787905549 1.9272033462 0.4863650040
C 0.8158718358 0.9865906411 0.3701416974
C 1.3712563816 -0.3839504634 0.3298545285
C 1.8975198579 -1.4603906239 0.3587354609
C -0.6162701033 1.1329455729 0.3805317481
C -1.0975696068 -0.2427558142 -1.0318306009
N -1.4778735438 0.0509554010 0.2131497164
H 2.3815139338 -2.4087222530 0.3805531725
H -1.0131373332 2.1088291570 0.6408056907
H -0.7421834306 -1.2303179976 -1.3143147079
H -1.2868975061 0.4883101726 -1.8028280408
H -1.7597510403 -0.6106891388 0.9193303313
