17
0 1
C -1.9316523605 -0.5618736266 0.3749381562
C -0.9563548040 -0.5882512168 -0.6445514681
O -0.7022867325 1.3192690484 -0.5580765457
C 0.6621936111 1.5673398483 -0.3700781187
C 1.3939848604 0.2416673994 -0.2070736312
C 1.0692432664 -0.6431230823 0.9565314646
C 0.4706795877 -0.9316220745 -0.3873453373
H -1.4280047630 0.7487046793 0.2949244610
H -1.6765000822 -1.0032839294 1.3310920009
H -2.9743688616 -0.6151229309 0.0878718251
H -1.2617364482 -0.6234702954 -1.6851143558
H 1.0585596938 2.0901103455 -1.2474395460
H 0.8232557172 2.2144863379 0.4993386190
H 2.3959560382 0.1828362257 -0.6148931214
H 0.4213626615 -0.2500159922 1.7296396897
H 1.8389578988 -1.3126494016 1.3165286420
H 0.8300357170 -1.7909203346 -0.9414987343
