15
0 1
C -0.6461256011 1.3314391731 -0.1231617668
C -0.3396910182 -0.1501464580 -0.3118515748
C -1.2497003169 -1.0601352730 0.5097475682
N 0.1550397031 -0.5868443873 -1.5014430485
C 1.2249092762 -0.5162215052 -0.1411595755
C 2.0938649685 0.6200074639 0.0663523634
N 2.8061239554 1.4987495384 0.2546827402
H -0.5560074131 1.6392001532 0.9202297782
H -1.6792572308 1.5002141079 -0.4325712365
H 0.0026607702 1.9468128344 -0.7427103553
H -2.2685523860 -0.9596103051 0.1309997197
H -0.9534081636 -2.1030965148 0.3983516671
H -1.2587817737 -0.7875303895 1.5670552996
H 1.5421121574 -1.0986505886 -1.0549486988
H 1.2590630721 -1.2576028491 0.6544961199
