8
0 1
N 1.4317687178 0.0283437969 -0.1655632286
C 0.0663930465 -0.0056412556 -0.0771567664
N -0.7797912386 0.6365912038 -0.8646191339
O -2.0120570670 0.2112242198 -0.4317501767
N -1.8330104819 -0.6938661411 0.6484057259
N -0.5913697845 -0.8133693301 0.8451723192
H 1.9111086023 -0.1981616606 0.6997667300
H 1.8069582052 0.8348791670 -0.6542554697
