16
0 1
C 1.4782657963 1.1141805231 0.3463772969
C 1.0837823460 -0.3280733148 0.2932069334
C -0.3457563776 -0.4222639495 0.8460874380
C -1.1079058093 -1.2544371056 -0.1906657262
C -0.5242338046 -0.1025012746 -1.2187273127
C -0.8913420582 0.7224505560 0.0167157086
N 0.8302032926 -0.3083941448 -1.1578856312
H 2.3697243759 1.3581806126 -0.2164353542
H 1.4026129999 1.6530383618 1.2916667770
H 1.7836064722 -1.0911751148 0.6318315526
H -0.5152496236 -0.5152247262 1.9141475061
H -0.7427240382 -2.2319910597 -0.4930688161
H -2.1824242493 -1.2761889689 -0.0234855333
H -0.9641919616 0.0768601781 -2.1943228579
H 0.2709554304 1.5324488405 -0.0415575702
H -1.9051837905 1.0795135869 0.1977515890
