15
0 1
C 1.6185739188 -1.1102632410 0.0684293470
C 0.5991551571 0.8323168859 0.8399039188
C 0.1131853911 1.5058205296 -0.4150576440
C -0.8450797408 0.7128965746 0.4439156802
C -1.5595645935 -0.5075546523 -0.1111495210
H 1.5520601181 -0.8670122414 -0.9914453470
H 0.9365579513 -1.9033351462 0.3801893336
H 2.6509467561 -1.2808446453 0.3944061893
H 1.4248804150 -0.0503940660 0.9052782741
H 0.1152325313 2.5998936939 -0.4083172817
H 0.3384583438 1.0812974708 -1.3955699273
H -1.4740915998 1.2868282557 1.1368486493
H -2.5240653915 -0.2167301382 -0.5533150589
H -0.9652406792 -0.9943175195 -0.8949708149
H -1.7572625778 -1.2485777607 0.6775312024
