8
0 1
O -0.7041499155 -0.5614695054 0.7392369805
C -0.9416997517 0.6966930637 0.7001790504
C 0.4920898156 1.0250201056 -0.9557932948
O 0.7214887674 2.0547358368 -1.4361408953
C 0.5378638690 -1.1394929729 0.0161133257
O 1.5387995937 -1.3394809201 0.6325925115
H -1.9125910360 0.8452243868 1.2438898660
H 0.1335316575 -1.6537469946 -0.8662675440
