16
0 1
C 1.8833340518 0.8683443684 0.3573682696
C 1.1214254528 -0.3694737882 0.6032005010
C -0.3880945246 -0.3764059740 0.9235585696
C -0.9061151463 -1.1825627173 -0.3061766147
C -0.4217500336 0.0959037671 -1.0362896675
C -0.9366023226 0.8632646904 0.1870813312
N 1.0425734704 -0.1132536201 -0.8426088058
H 1.9437097633 0.5822034691 -0.9933271090
H 1.2715553030 1.7597362786 0.5002534179
H 1.6521726116 -1.2728656158 0.8987793342
H -0.6700583171 -0.6213981127 1.9442740917
H -0.3947311805 -2.1118806910 -0.5590239621
H -1.9877877847 -1.3133917885 -0.3231263568
H -0.6734672172 0.3420070862 -2.0645207936
H -0.5516362654 1.8561447950 0.4056603121
H -2.0245798611 0.8838178526 0.2044824823
