8
0 1
O -0.8091092137 -0.3750139241 1.1361697682
C -1.3782430875 -0.5417227732 -0.1716858684
C -0.6972169970 0.0469568245 -1.1589151271
C 0.5783953767 0.4283972355 -1.0542572384
C 1.6409620928 0.7247312439 -0.4674679388
O 0.5183543547 -0.5011173210 1.2692388817
H -2.4071142975 -0.8819594965 -0.1026929389
H 2.5983837714 1.0794892109 -0.1412055384
