13
0 1
N -1.4106709804 0.4891070726 -0.7124170379
C -1.4196768390 -0.0068779819 0.5462389680
O -2.3513367803 0.1139553481 1.3098483924
C -0.1576626107 -0.7643375469 0.9552158308
O 0.9720133021 0.1147368672 1.1670005509
C 1.8676003925 0.3322930020 0.2330370064
N 1.5129141335 -0.0310266440 -1.0236789005
H -2.2299750445 0.9671560489 -1.0421253238
H -0.6445276648 0.2905503780 -1.3338322655
H 0.0952420224 -1.5269753969 0.2172943145
H -0.3477418827 -1.2144030777 1.9245296869
H 1.7634449010 1.1984192229 -0.6910628875
H 2.3510710508 0.0241127075 -1.6011483344
