12
0 1
O -1.9226767500 0.4617089381 0.2430669349
C -1.3221069660 -0.1188430914 -0.7747340616
C 0.1187412471 -0.2561567164 -0.8644965272
C 0.6136180459 -0.7376440181 0.4843358149
C 1.3459826026 0.2301777009 1.1846112109
O 1.5567336327 1.4096369117 0.7734568509
H -1.2054403166 0.6813999602 0.9005810919
H -2.0401562824 -0.5004344379 -1.5043758304
H 0.4139208573 -0.8287495470 -1.7536381604
H 0.5923478954 0.7721001150 -0.9032649151
H 0.3893965667 -1.7341292426 0.8563258069
H 1.8143154672 -0.1071365725 2.1347047842
