15
0 1
C 1.7169593183 -0.7676516141 -0.7650593987
O 1.0419713358 -0.3155255185 0.4225747281
C -0.2235497967 0.0815649321 0.2928738824
C -1.1107427823 -0.2600793128 -0.7953085428
C -0.8241783092 0.5256321204 1.5893538774
H 2.7466299853 -0.9689934495 -0.4578330848
H 1.6875749946 0.0386602914 -1.5121150741
H 1.2507611189 -1.6792220717 -1.1614231925
H 0.1875670381 1.7852335708 -0.3740215652
H -0.7216594925 -0.8190025515 -1.6437044724
H -0.6380092022 1.0437816165 -0.8531667000
H -2.1479964416 -0.4583904924 -0.5217218717
H -1.6996292266 1.1525739219 1.3992949416
H -0.0953213714 1.0620492225 2.2022272048
H -1.1533161685 -0.3869276651 2.1150472680
