18
0 1
C 2.3061085259 -0.7665062415 0.3931254122
C 0.8421848055 -0.8708311553 -0.0431764779
C 0.1951845970 0.4499690265 0.2007263849
C -1.7802489421 -0.1777622559 -0.1496284402
C -1.0760197434 1.1764497716 -1.1154461000
C -0.0705687643 0.9051827099 1.4962026835
N -0.2442511720 1.3621016721 2.5474798991
H 2.8339927594 -0.0055474597 -0.1813610738
H 2.8040545449 -1.7259674676 0.2458894248
H 2.3831458356 -0.5078488269 1.4504999970
H 0.3701309583 -1.7139671645 0.4842271512
H 0.8025691938 -1.1032404395 -1.1116632281
H -1.4439338022 -0.8337422176 0.6432114555
H -2.6379004826 0.3696849334 0.2295820640
H -2.0307506130 -0.8062215976 -1.0001121624
H -2.0522250231 1.2013116539 -1.6180924781
H -0.9351119651 2.1566652704 -0.6761397640
H -0.3398107127 0.9775267882 -1.8863907473
