11
0 1
O 2.6186870091 -0.0757435183 -0.3993405718
C 1.4361528869 0.0806765033 -0.2142952605
N 0.6093502998 -0.6413770417 0.6864605604
C -0.7142129677 -0.3275892860 0.6003652239
C -0.6867892881 0.9451297116 -0.2046795097
O 0.6369789207 1.0007986919 -0.8275477074
H 0.9920104675 -1.4210116141 1.2112374602
H -1.3982133210 -1.4070952872 -0.6923562304
H -1.5212189501 -1.1621988984 0.3281018950
H -0.7590585072 1.8129071947 0.4689978858
H -1.4498985498 1.0088695441 -0.9822847456
