12
0 1
O -1.6217166729 0.4550694055 1.8260075640
C -0.7530036987 0.3838679767 1.0656705708
C -0.4477738990 0.9851237204 -0.2997741286
C 0.6231394705 -0.0471667582 -0.7141348377
C 0.0706499839 -1.3825937813 -0.5244349692
C 1.4999731044 0.2232597913 0.5346243222
N 0.9918753250 0.1883729590 1.6128790762
H -1.3475602620 0.9442051667 -0.9154726850
H -0.0777270941 2.0159675667 -0.2237323418
H 1.0306597599 0.1484436750 -1.7068991635
H 0.2982449356 -1.9447756523 0.3659957989
H -0.1736199526 -1.9714470696 -1.4021802063
