9
0 1
N -0.8497035801 -0.3180932938 -0.3788632308
C -0.7920266884 0.8840540224 0.3015217572
C 0.5014116985 1.2103671827 0.7410481416
C 1.2082788149 0.0786223120 0.2959991942
N 0.3953522910 -0.8658185813 -0.3070098582
H -1.6369816791 -0.9463175528 -0.5504353575
H -1.7422273224 1.4090194048 0.4103953128
H 0.6262735314 -1.6013963902 -0.9762804259
H 2.2649029342 -0.1712371037 0.3709784667
