14
0 1
C -1.7746934408 0.4022404861 -0.4199541819
C -0.3552624301 -0.0740785407 -0.4421181544
C 0.7857318417 0.8037076493 -0.3743303112
C 1.9203524320 0.0354521259 0.1298552967
O 1.5190376288 -1.1655440837 0.5368565685
C 0.0154728645 -1.2252522938 0.4611204652
H -2.4641002800 -0.3541597230 -0.8321392357
H -1.9020412038 1.3135684601 -1.0224347375
H -2.1469187724 0.6297606477 0.6066724346
H 0.9659703490 1.6247827587 -1.0739950159
H 0.9099567939 1.2927349230 0.7049817106
H 2.9837975843 0.2479923477 0.1452235258
H -0.3406729666 -1.1248125109 1.5205094994
H -0.2405564005 -2.2392752464 0.1152921359
