18
0 1
C 2.3639047848 0.2740478924 -0.3689038701
N 1.7502258324 -0.9110039559 -0.4738593343
C 0.6465229162 -0.0161220113 0.6578744901
O 0.7631953743 -0.3182086787 1.8153453855
C -0.6431555440 0.0630742376 -0.1663302659
C -1.3366965388 -1.2946117949 -0.1660331116
C -1.5279047051 1.1426372073 0.4521740042
H 1.2391700620 1.0659724045 0.3019368120
H 2.5552281838 0.9266919078 -1.2240267872
H 3.0149352493 0.4179909328 0.4907434555
H 1.3132184976 -1.0093605218 -1.3835486204
H -0.3896243941 0.3565929870 -1.1883289956
H -1.5755112446 -1.5929419299 0.8554495441
H -0.7081962360 -2.0719651547 -0.6010550408
H -2.2665052439 -1.2401389330 -0.7352307710
H -2.4660856111 1.2195841908 -0.1000095301
H -1.7565729381 0.8980902781 1.4904109099
H -1.0391064446 2.1186399422 0.4324677257
