13
0 1
N -1.9600916957 0.8146950195 -0.2244656093
C -0.6990148196 0.1666643990 -0.2195854332
C -0.3859184110 -1.1572119456 -0.0549856263
N 0.9499105318 -1.3491932599 -0.0840926053
C 1.6661284006 -0.1493875323 -0.3331610738
O 1.5411204783 0.6885125680 1.0896785223
C 0.5568175591 0.8119861615 -0.3814016488
H -2.6620623532 0.3017767603 -0.7352836141
H -2.3054710482 1.0126229715 0.7038420919
H -1.0728900367 -1.9867028725 0.0685926763
H 1.3815406705 -2.2503232733 -0.1632921473
H 2.3173253089 1.2482513248 0.9956079785
H 0.6657244152 1.8504736790 -0.6612115107
