15
0 1
C 1.1931923527 1.4076181792 -0.4075592468
C 0.2380766359 0.4273446965 0.2279003461
O -0.1298186791 0.8798137719 1.4968081344
C -0.9863803776 -0.0616172258 -0.5566330674
N -1.2025134067 -1.2923670008 0.1803288202
C 0.8066693525 -0.9743625615 0.3661728996
N 1.4168546827 -1.9940395248 0.3947902245
H 2.0346613077 1.6083988505 0.2547695686
H 0.6571237673 2.3414970614 -0.5757899842
H 1.5627692987 1.0316402944 -1.3613912009
H -0.8367360314 0.2773795956 1.7782461582
H -0.7310201749 -0.1676490067 -1.6236300782
H -1.7864576182 0.6847876663 -0.4690285518
H 0.2554002238 -2.2354369269 0.2460418999
H -1.9107503336 -1.8925358695 -0.2253379220
