11
0 1
O -2.2493387895 -1.0554546757 -0.6027197973
C -1.8177221075 0.0122369486 -0.2615951711
C -0.3839631079 0.2267857339 0.0410153284
C 0.3338845207 1.4885708270 0.0253113893
N 1.6806558927 1.0912480469 0.0595953719
C 1.7378973613 -0.2096718015 -0.0167900113
N 0.5319128899 -0.8089756730 -0.0196607912
H -2.4457534106 0.9136817917 -0.1650783954
H -0.3489447704 0.9026055780 1.0823321294
H 2.6537109533 -0.7868590351 -0.0585197548
H 0.3178025683 -1.7900547409 -0.0830742981
