13
0 1
N -1.6235117710 0.9651624472 -1.4338962936
C -1.4589862888 0.8990704073 -0.2084171176
O -0.9079400678 -0.8791624521 0.5302655732
C 0.2207734007 -1.2745724196 0.0464480967
C 1.5894529997 -0.2604602770 0.5959094411
C 0.8649016326 0.9237872714 0.5425591755
N -0.0967993343 1.5767774457 0.4377516426
H -0.8023910898 1.0514416258 -2.0165453447
H -2.2185792477 0.9445572260 0.5564977712
H 0.3406684700 -1.2229307880 -1.0536121543
H 0.6009547364 -2.2293510894 0.4348846816
H 1.8420629014 -0.5539794908 1.6114264536
H 2.4181696586 -0.3448869066 -0.1006469254
