13
0 1
N 1.9127709717 0.6831076171 -0.1304809373
C 0.5613879857 0.3844054507 -0.1000397279
C -0.0599590251 -0.8168384254 0.0375679967
O 0.5910606363 -1.9903704508 0.3308735282
C -1.4708939135 -0.5477041592 -0.0398001334
C -1.6957851834 0.8553754457 -0.3030571883
N -0.4102813532 1.3431369780 -0.2500515373
H 2.4763813387 -0.1285862416 0.0728304243
H 2.1820672170 1.4607412760 0.4524554155
H 0.3881754193 -2.6435831253 -0.3410075912
H -2.2602744248 -1.2829594805 -0.1243551569
H -1.9219968430 0.2132198756 0.8727196589
H -0.2069258258 2.3204422400 -0.3623827513
