16
0 1
O 2.6995099133 -0.0317929497 -0.0245026804
C 1.4473644464 -0.0982842083 0.4871518235
C 0.3445441684 0.1286996734 -0.3456351088
C -0.9001884467 -0.7272160035 -0.0491089119
C -1.9154414350 0.3564260546 -0.4279907650
C -0.7608512442 1.2727537070 -0.0855898566
H 3.3423880319 -0.2521098117 0.6512143206
H 0.9176815952 -2.0617449852 0.2796921606
H 1.3514972723 -0.0871810765 1.5681185597
H 0.6180891191 0.1330640750 -1.4015763994
H -0.9651432750 -0.9523078745 1.0215301354
H 0.1642470779 -2.1256163873 -0.0438339370
H -2.1772048771 0.3619132856 -1.4866082096
H -2.8108683416 0.4372990940 0.1825138633
H -0.7603839202 1.5888161862 0.9546903400
H -0.5534510845 2.1167612210 -0.7417143344
