16
0 1
C 2.4898190280 0.3480209277 0.1236511717
O 1.1158753353 0.6333562136 0.2091983438
C 0.3197217644 -0.5230237438 0.1737247779
C -1.1211715704 -0.0432796073 0.2427579163
C -1.6530904769 0.6406331581 -0.9912403390
C -1.9222277873 -1.6611704048 0.2274794777
N -2.3588235502 -1.0647676901 1.1529978366
H 3.0214712680 1.2973703301 0.1567969655
H 2.7338226131 -0.1664677761 -0.8141335803
H 2.8195992709 -0.2773958939 0.9625674604
H 0.5388903008 -1.1782150028 1.0255821638
H 0.4885268244 -1.0918721305 -0.7494442896
H -1.1994143398 0.6144051202 1.1062403937
H -2.6909551601 0.9390890295 -0.8514788045
H -1.0525343621 1.5360985173 -1.1644331578
H -1.5880751583 -0.0071960474 -1.8650543362
