10
0 1
N -0.9262153828 1.4353699041 -0.8704365542
C -0.4803550270 0.3683913310 -0.3957650879
O 0.7024153298 -0.2233121929 -0.7875918290
C 1.6218574788 -0.4613116318 0.1846696493
O 1.5827437735 0.0002109718 1.2777701751
C -1.3307306339 -0.4312576983 0.5609916427
O -1.0653065028 -1.5491932894 0.8883135570
H -0.2796825651 1.8608696387 -1.5321860204
H 2.4073557934 -1.1094253232 -0.2189747882
H -2.2320822639 0.1096582898 0.8932092554
