12
0 1
C -1.6560610206 0.5626583936 -0.0141572343
C 0.1242373912 -1.1390877917 0.7670592879
C 1.2950335885 -1.2342435181 0.0396128577
N 1.5813034599 0.0042251652 -0.5899286087
N 0.7629495131 0.9638000067 -0.3883367059
C -0.2364632741 0.2965976368 0.5186012732
H -1.8234953568 1.6368585642 -0.1606535422
H -1.7993784781 0.0445320883 -0.9703545509
H -2.3808537934 0.1681518403 0.7059585662
H 1.9876556322 -2.0534018425 -0.1471756456
H 2.3932517388 0.1995337541 -1.1899771313
H -0.1095804008 0.8427607032 1.4747024339
