14
0 1
O 1.9875707764 0.4819751004 -1.8410283303
C 1.1374755083 0.3692942200 -0.9889599309
C 1.4362623403 -0.2222417957 0.4368200884
N 0.4266599759 -1.1726078912 0.2727967932
C -0.8111722805 -0.7146168433 0.8844707960
C -1.2588251064 0.4360844821 -0.0091843647
C -0.2712090139 0.4633126601 -1.1341871100
H 2.4385893325 -0.6402987973 0.4001003519
H 1.3107256939 0.5043360321 1.2450004045
H -0.6292876964 -0.4233322308 1.9261129589
H -1.5361082457 -1.5273919608 0.8770553830
H -1.3886007114 1.4213317249 0.4569352579
H -2.2303969063 0.1772207235 -0.4308885033
H -0.6116846666 0.8469355758 -2.0950427946
