17
0 1
C -2.4823414683 -0.5860669907 -0.0688858576
C -0.4366214542 -0.4033388861 -0.8161167000
O -0.4533730427 0.7905974739 -1.4162539626
C 0.2247678429 -0.4410366677 0.5390183119
C 1.7367935929 -0.2746805778 0.3983265465
C 2.2057251212 1.1437297785 0.2565235403
O 1.4873758614 2.1075610685 0.1752754795
H -2.6500226317 -1.4087070565 0.6244106861
H -2.3859482065 0.3649959743 0.4449241741
H -3.2522483578 -0.5331573293 -0.8380377915
H -1.4794067934 -1.0229237063 -0.8904675198
H -0.1841665841 1.4992410922 -0.8069530885
H -0.1438645580 0.3361934895 1.2242196818
H 0.0109441763 -1.4070678993 0.9966942078
H 2.1212165746 -0.8316611571 -0.4652046439
H 2.2615241882 -0.6879986946 1.2667169074
H 3.3052847392 1.2765600888 0.2374110285
