8
0 1
O 1.7289092622 0.2914391089 0.6158769788
C 1.8582729912 -0.8362577867 0.9393741011
N -1.0570988022 1.0338959162 -0.5533012085
C -1.2145268004 -0.2311992183 -0.1129365286
N -1.3220135010 -1.3563033939 0.2132278581
O 2.0163127680 -1.9505453910 1.2681302229
H -1.7998226386 1.6706862963 -0.2692509220
H -0.1279652791 1.4023894685 -0.3502955018
