15
0 1
C -1.6942851812 0.2834419400 -0.5535872763
C -1.5244989788 -0.1529441574 0.8636401230
C -0.3165075439 0.0745180315 -0.0103573456
C 0.7607311298 -0.9073487333 -0.3818063780
C 1.9645627830 0.1199805756 0.1921774153
O 2.7364374206 0.6119724357 -0.7039094050
C 0.7614671997 1.0182768483 0.2023415921
H -2.0520871610 -0.4403197438 -1.2740357780
H -2.0009892221 1.3049767089 -0.7394826675
H -1.7186957481 0.5601734502 1.6534537425
H -1.7333484862 -1.1861112324 1.1126991557
H 0.7835745174 -1.8425844300 0.1747777416
H 0.9255334024 -1.0248637509 -1.4468131040
H 2.3499344285 -0.2808069940 1.1454643043
H 0.8491384399 2.0195260515 -0.2210951202
