10
0 1
N -0.8150149611 1.5854858811 -0.9835929633
C -0.4995874208 0.5100620130 -0.4309786863
O 0.5889252819 -0.2659348503 -0.8174123840
C 1.5498783149 -0.4868546957 0.1126021123
O 1.6229379900 0.0711755220 1.1592916856
C -1.3902838489 -0.1011122760 0.6138744702
O -1.1182085624 -1.3159667223 0.9440672737
H -0.1390066250 1.8513381388 -1.6986975752
H 2.2538439294 -1.2331008969 -0.2728033247
H -2.0276140979 -0.7756971136 1.4512673917
