14
0 1
C -1.8618438502 0.2237441739 0.0093273204
C -0.3764984638 0.0951915640 -0.0151077852
C 0.5836733716 0.9646405871 0.5109193594
C 1.8174018470 0.3390676876 0.3596703050
N 1.7350712745 -0.8823292629 -0.1974016483
C 0.3321556835 -1.2392268806 0.0500911716
O -0.0937456399 -2.3255191274 0.2477060255
H -2.1720004502 1.2637222047 -0.0856709769
H -2.2439140102 -0.1673778879 0.9551430415
H -2.3203125050 -0.3568367381 -0.7903983616
H 0.2058396942 -0.0550421927 -1.4451446246
H 0.4178724504 1.9822715363 0.8321872454
H 2.7868649689 0.7994138548 0.5005305778
H 1.0941746289 -0.4860405187 -1.4259406497
