16
0 1
C -1.6952536686 -0.5412151263 0.0130564770
C -0.2379301392 -0.1209364436 0.1496996716
C 0.7759140609 -0.9010356298 -0.4772827753
O 1.1852077459 0.5161870795 -1.7563515349
C 0.1633344118 0.6474125654 1.3958381359
O 1.5132234223 1.1054513370 1.3348197456
H -1.8886115058 -0.9925755619 -0.9725638409
H -1.9920840103 -1.2807371313 0.7756718354
H -2.3682070088 0.3227835809 0.1152497251
H 0.1618073119 0.6294354821 -0.9560312070
H 0.4993238140 -1.6963254455 -1.1744406692
H 1.7891602191 -0.9463881722 -0.0871133057
H 0.9090452005 0.2812890115 -2.6715838090
H -0.5519662940 1.4793222251 1.5465222437
H 0.1111706438 0.0100580123 2.2936975687
H 1.6412007965 1.4790962167 0.4399207391
