14
0 1
C -1.5402200515 -1.2909143023 0.3494382476
N -0.4539887362 -0.3567293755 0.1578400765
C -0.0573230080 1.7144355049 -0.2718396767
C 0.7893659724 -0.7980036990 0.0893831364
O 1.3290205358 -1.9020636682 0.2350052539
N 1.5921656371 0.4288619977 -0.2338944309
H -1.1307076616 -2.2881250646 0.5890383835
H -2.1988046741 -0.9758225722 1.1745661690
H -2.1582265902 -1.3890881811 -0.5601808665
H 0.6292721004 2.3678088435 -0.8116884836
H -1.0015851203 1.6062978961 -0.8015735094
H -0.1725234132 1.9664022584 0.7777031826
H 2.0445882635 0.3298007637 -1.1487317727
H 2.3337417460 0.5879545988 0.4581442904
