12
0 1
O -1.8991537617 -0.3756597202 -0.6906350868
C -1.1106397372 -0.5744947338 0.4670580206
C 0.3408219062 -0.2167054351 0.2806509691
C 0.7464009002 1.1342261667 0.1866438892
C 1.0450875119 2.2969860518 0.1190572998
C 1.2507907975 -1.2244518151 -0.0248012701
N 1.9926248433 -2.1054441467 -0.3532730166
H -1.8833939757 0.5588642822 -0.9116640236
H -1.4988572380 0.0096251876 1.3088392423
H -1.2063674509 -1.6308630755 0.7175836393
H 0.9024991007 -1.2547200804 -1.1384104898
H 1.3246111036 3.3227633185 0.0713608268
