8
0 1
O 2.2138624201 0.1815506407 0.1470116365
C 1.0135375330 0.0299986602 0.1221343468
N -0.0205520839 0.8507595614 -0.1368027716
C -1.5305048590 -0.5111087154 0.5532550335
N -0.7711643394 -1.4649930431 0.5522711592
O 0.5580468506 -1.3921870739 0.3562155521
H 0.1420452475 1.8246483226 0.1178856288
H -1.5361637689 0.5145206476 0.0444274145
