14
0 1
C -1.4898971239 0.3157291105 0.0985558772
C -0.4643801193 -0.8024963442 0.3087868383
C 0.8991923687 -0.0451641673 0.3414955930
N 1.9870742863 -0.8869363586 -0.1788391130
C 0.6930685767 1.2939664019 -0.3822710824
N -0.6169996088 1.3933985948 -0.4791868939
H -1.9338218893 0.6701675604 1.0412220961
H -2.3033229145 0.0675667230 -0.5967736829
H -1.0642023716 2.2080265936 -0.9013153288
H -0.6496016208 -1.3906507246 1.2141102401
H -0.4701898321 -1.4916261539 -0.5478903851
H 1.1528682858 0.2107665045 1.3858749855
H 1.8368342543 -0.9840383353 -1.1893907571
H 2.8555717085 -0.3468424046 -0.1061103870
