16
0 1
C -2.7457683012 0.2526635655 -0.5352247927
C -1.5612661934 -0.5617859472 -0.0601355197
O -0.5165240509 0.2491805207 -0.0635624026
C 0.7651946463 -0.3566559480 0.3512067659
C 1.5942596090 -0.5661653434 -0.9092801865
C 1.3961493480 0.5954006984 1.3589370393
H -3.1689562665 -0.2606562546 -1.4147973100
H -2.5476808223 1.3107669754 -0.7795149453
H -3.5285081923 0.1867759581 0.2384204741
H 0.5096295318 -1.3199365707 0.8121637244
H 1.0758591802 -1.2510713010 -1.5932459176
H 1.7631663355 0.3890754478 -1.4255310305
H 2.5703096170 -0.9997425266 -0.6518782399
H 2.3580529290 0.1913351782 1.7024043222
H 0.7425655007 0.7261353385 2.2314118691
H 1.5758091290 1.5790682091 0.9037561500
