12
0 1
O 2.5116382709 0.9758814103 1.2473606668
C 1.7309212553 0.3792251572 0.6633338186
C 0.9285039639 -0.7149791214 0.1873424584
O 1.4771588583 -1.7734111702 -0.1234549689
N -0.3448017747 -0.3288803072 0.0579216971
C -1.6303503091 -0.6740320562 -0.5033702581
C -1.1970360143 0.6930499958 -0.0723444765
H 0.9822288758 1.5707308091 -0.8240859416
H -2.2366023057 -1.3209052488 0.1249241999
H -1.6672192665 -0.8823837624 -1.5673471890
H 0.1839961802 1.6527227263 -0.8628846316
H -1.5456557340 1.3477475673 0.7148186249
