17
0 1
C 2.0281149327 -0.4690320859 0.2300738519
C 0.7798749950 0.3153629270 0.5712745773
C -0.0074119613 0.9870273060 -0.5803282262
C -1.2863623388 0.5955807260 0.1558682568
O -2.4624657704 0.1989654250 -0.6188126129
C -2.4485703304 -0.7322918702 -1.5035703613
C -0.5082025834 -0.4656798132 0.9301044765
H 2.4145623361 -0.9950002601 1.1057746006
H 2.8175577110 0.1890782860 -0.1395263664
H 1.8200590333 -1.2121698027 -0.5438595006
H 0.9966530853 1.0511160690 1.3493203628
H 0.1545570913 2.0430026357 -0.7906387470
H 0.1021476415 0.4101881283 -1.5019166992
H -1.6608521114 1.3906033289 0.7971751520
H -1.4046456096 -1.1534828258 -1.5515538581
H -0.5266884429 -1.4242712049 0.4058911480
H -0.7634436778 -0.6194399691 1.9773669456
