16
0 1
C 2.3163488271 0.0132615686 0.3918963912
O 1.2369554089 -0.7323291339 0.5304532577
C 0.0980705282 -0.3889505857 0.0155178482
C -0.5278097352 0.9790685979 -0.0177226242
C -1.8990215739 0.2524587278 -0.0566862831
C -1.2038673857 -1.1067823191 0.2386713121
H 2.1899726658 1.0872999881 0.3310405098
H 1.8715959980 -0.1203994261 -1.4786612732
H 3.1971058932 -0.4231744639 0.8361695757
H 1.0954196289 -0.2982741856 -1.6200563458
H -0.3529448544 1.5236083416 0.9205921426
H -0.2887589703 1.6440781495 -0.8478528075
H -2.3638344645 0.2821969189 -1.0406371881
H -2.6249302773 0.5780836465 0.6858683366
H -1.3398564798 -1.4496977965 1.2684488744
H -1.4392922091 -1.9296450282 -0.4368647263
