13
0 1
N -2.2053215950 0.6213402917 -0.1617177771
C -0.8230816338 0.2654657024 -0.1833887429
C -0.4032396420 -1.0552316014 -0.5097269867
N 0.8857961822 -1.1167839565 -0.1702101818
C 1.3060982539 0.0723076812 0.3675786209
O 2.6127703200 0.1251088008 0.7256736180
C 0.3068230666 1.0090791424 0.4950742784
H -2.6369840870 0.2326487179 0.6662306762
H -2.2782342672 1.6271907341 -0.0734775110
H -0.9326274892 -1.8827180942 -0.9543405856
H 1.4987734290 -1.8926349327 -0.3723374842
H 2.7526073955 1.0092811499 1.0768575979
H -0.2301339330 0.8875713645 -0.9726315220
