13
0 1
O -1.6177438985 -0.8729103195 0.9234993218
C -1.0630182082 -0.0471625604 -0.0812925649
C -0.2060391077 1.2080606522 0.2745702706
N 0.9055941003 0.7779380384 -0.6587529108
C 1.3881434437 -0.4932744556 -0.0958088752
C 0.1383395816 -0.5273988853 -0.8914368218
H -0.8746958583 -1.2184677602 1.4534138727
H -1.9044589888 0.2217274055 -0.7297902960
H 0.1118327577 1.2917030745 1.3244256797
H -0.6366164225 2.1605464743 -0.0545300176
H 1.3686544227 -0.6371183221 0.9903841083
H 2.2922531371 -0.8638692607 -0.5802929188
H 0.0977550409 -0.9997740812 -1.8743888480
