13
0 1
C 2.2092042299 -0.0693154761 -0.2611909944
O 1.2088943843 0.3384832428 -0.9242803322
C -0.0251800328 0.3632721038 -0.3463851281
C -0.3039559888 -0.1467194527 0.9191686047
N -1.6709000948 -0.0039269992 0.8737804902
C -2.0769184453 0.5732878816 -0.3008826030
N -1.0726159015 0.8093207144 -1.0935526629
H 2.1662588527 -0.0692377425 0.8221121865
H 3.1218345582 -0.1808494149 -0.8323772874
H 1.4467439875 -1.8597892972 0.1192504457
H 0.7802017493 -1.6144960517 0.4984881199
H -2.2845649772 -0.2410469293 1.6324868528
H -3.1099493217 0.8049424210 -0.5188716917
