12
0 1
C -1.6045332557 -0.2193875779 -0.5958482950
C -0.2608097245 0.2044295302 -0.1035721591
C 0.0636424190 1.4426041924 0.5121616480
O 1.3302529757 1.2311967505 1.0095313199
C 1.7570118219 -0.0720207560 0.8625814470
O 2.7946628683 -0.5019028148 1.2544902313
N 0.7491435446 -0.7070696482 0.1743942488
H -1.5376311638 -0.8048625541 -1.5135795061
H -2.0927670306 -0.8251391087 0.1683120326
H -2.2142882966 0.6645236752 -0.7762493826
H 0.1096672025 1.1764384925 -0.8469848756
H 0.8486866392 -1.6404371813 -0.1799857092
