10
0 1
C -0.4916028862 -1.7289454535 -0.2957402673
C -0.4436281389 1.8162750738 0.1821765566
N 0.3482503390 0.8312814154 0.1571591505
C 1.1733118884 -0.1410807429 0.1380010597
O 0.7236794137 -1.4130581799 -0.0912594380
H -0.6808270312 -2.7781751305 -0.4612271316
H -1.2537565694 -0.9606900242 -0.2956855571
H -1.5197028350 1.6911809863 0.0225082346
H -0.0935202348 2.8368609175 0.3641444056
H 2.2454110546 -0.1551908622 0.2787009870
