8
0 1
O -1.6185228220 0.2718420485 1.1206503786
C -1.3992804887 -0.2750851776 0.0563636024
C -0.1015714816 -0.3452604483 -0.6319217617
C 0.7921016734 -0.7484822284 -1.4639431462
C 1.2475542576 0.4474125999 0.0695482232
O 1.5605708395 0.0948191871 1.1672733263
H -2.1891125302 -0.7951010197 -0.5309408395
H 1.5442605520 1.3695830385 -0.4507577832
