15
0 1
C -1.6571057997 -0.2360823139 -0.6132555300
O -0.7550263409 -0.9283900769 -1.4107516200
C 0.1086908288 -0.9491528823 0.7230998506
C 1.4634233267 -0.6903135626 0.7582993944
C 1.6473236578 0.5621468627 0.1852999324
C 0.4155425489 1.0687970342 -0.3174213221
C -0.6887456122 0.2852850028 0.4299240888
H -2.2016665083 0.5670016473 -1.1369664028
H -2.4065101235 -0.8988788279 -0.1523937912
H -0.3574041825 -1.8973688428 0.9551857956
H 2.2431750208 -1.3840483262 1.0348070627
H 2.6110825126 1.0391829404 0.0454310163
H 0.3035715133 2.1279816890 -0.5239627867
H 0.2287729552 0.3423143394 -1.2617755547
H -1.0269767972 0.8089273169 1.3342808668
