11
0 1
O -0.4279085371 1.9098360600 -1.1566489778
C -0.4074328584 0.9592431256 -0.4426576731
C -1.3342727161 -0.0331233179 0.0473402888
C -0.0390524371 -0.8072209468 -0.3359362166
C 1.0775810604 -0.7056845764 0.5416038344
C 1.3557361066 0.6211054110 0.4312591522
O 2.0745501830 1.5499928408 0.3801993029
H -1.5635628891 -0.1183172547 1.1052841728
H -2.2006558982 -0.1772135171 -0.5961593015
H -0.1227688142 -1.6042655743 -1.0728463700
H 1.5683218002 -1.4686162503 1.1350867878
