10
0 1
O 1.2471436281 -0.3498419957 1.3751762938
C 1.3230654707 -0.4105346624 0.0352526137
C 0.2280509153 0.2638882348 -0.6841168901
C -1.1626317268 -0.1852906198 -0.2802746557
N -0.6925955033 1.1381990502 0.0779121998
H 2.1378772221 -0.9267326870 0.8753951105
H 0.4021615991 0.5336669329 -1.7251665108
H -1.9182546791 -0.2280286297 -1.0663683920
H -1.2295284777 -0.9593486111 0.4877796737
H -0.3702274484 1.1162779877 1.0574095571
