12
0 1
N -0.9764027855 -0.0460049761 0.7594140432
C -0.8698117684 0.0988540288 -0.6729831709
C 0.1063486653 1.2711540148 -0.6822761699
N 1.1287662078 1.1276912327 0.0792034208
C 1.0519994080 -0.1098226590 0.7255943736
N 1.0501100536 -1.1930686998 -0.1592170024
C 0.0256531311 -1.1089103690 -0.9268390808
H -1.3610737337 0.7556075261 1.2475863399
H -1.4106448621 -0.9063617450 1.0762664607
H -0.0140310323 2.1733186322 -1.2726849236
H 1.5150761999 -0.2254267051 1.6968319705
H -0.1550584834 -1.8653962806 -1.6835352612
