11
0 1
C -0.9011374907 0.0931443810 -0.0876202641
C -0.4209101915 -0.6279613098 -1.3562598687
O 0.7375342576 -0.9086131739 -1.5859679301
C 1.4534984895 0.9501765500 0.4764447183
N 0.9754540395 0.6937746995 1.6509925796
C -0.0597790850 -0.0762177314 1.1366920312
H -0.9242478738 1.1631538201 -0.3683151500
H -1.9329542645 -0.2457410842 0.1193521712
H -1.2316009911 -0.8664772046 -2.0864057855
H 2.5457580301 0.8110981482 0.3767127165
H -0.2430129201 -0.9875390950 1.7183037816
