12
0 1
N -1.5866524577 0.0699498315 -0.6561541341
C -0.3011001834 0.3052554219 -0.0663106629
C -0.5579190680 1.6424553945 0.6107704694
N 0.8686047493 0.4820412247 -0.9344807531
C 1.7361216485 -0.3288463468 -0.4751854970
N 1.3613570893 -1.1446684417 0.6355351499
C 0.1502750708 -0.8046844650 0.8469845497
H -1.8001748653 0.7888830755 -1.3329232786
H -1.6874124307 -0.8534744125 -1.0546679450
H -0.3294372359 1.5356180786 1.6916377254
H 2.7304793788 -0.4348108660 -0.8939084168
H -0.4553756957 -1.2357654947 1.6383627934
