17
0 1
C -1.1755724827 0.5472399924 -0.1314709363
C -0.6946890335 -0.8522907917 -0.5173317151
O -0.4025035917 -0.9446022272 -1.8980525150
C 0.5090802364 -1.2277937011 0.3794742986
C 1.0170506356 0.0438854365 1.0558022497
C 0.5775048284 1.2335636700 0.2358979819
O 0.4532684713 2.4313727942 0.7849471862
H -1.7882597078 0.5041169572 0.7765187614
H -0.6130377822 1.7082724423 0.3569742457
H -1.7270516577 1.0120007803 -0.9490766605
H -1.5120066098 -1.5599349732 -0.3750642167
H 0.3763628515 -0.4203364999 -2.0964789041
H 0.2205476703 -1.9722313946 1.1216961786
H 1.2683723688 -1.6980297955 -0.2474742427
H 2.1051806832 0.0833511957 1.1431611797
H 0.6080950448 0.1711536522 2.0596740656
H 0.9558440751 1.2046194626 -0.8038729572
