14
0 1
C 2.1662505770 0.3899078892 -0.3726903543
C 0.9637765532 0.9215283383 0.3547513371
C -0.2334647003 0.3280674178 0.3222498515
C -0.8869561210 -0.8820375465 -0.3222413112
C -2.1619282049 -0.3577373870 0.3743494742
O -1.4105836414 0.7581416698 0.9516924858
H 2.9941587128 0.1686998160 0.3196205144
H 1.9243494666 -0.5366860297 -0.9129219239
H 2.5462133312 1.1166802921 -1.1087003026
H -0.9161944011 -0.8805659792 -1.4194254952
H -0.5323977374 -1.8588484167 0.0306978942
H -2.9593063317 0.0007235555 -0.2914615204
H -2.5860035408 -1.0012869639 1.1572061307
H 1.0541800377 1.8410363443 0.9360562198
