15
0 1
C 2.2153342546 -0.2853179570 0.6703188379
C 1.0099809418 0.5278830227 0.3355817809
O 0.7833793168 0.5880207390 -1.2948444805
C -0.0177500200 -0.0213494088 -0.5320842576
C -1.6594532747 0.9383396299 0.2205194442
O -2.0529103210 -0.4418169011 0.2129291718
C -1.1614197104 -0.9680798301 -0.7307958741
H 2.0867143043 -0.6377737273 1.6976449347
H 2.3586794786 -1.1545625691 0.0209127780
H 3.1167768361 0.3273199916 0.6509658120
H -0.2585147391 1.1415456844 0.5452573431
H -1.9951971899 1.3961372844 1.1550336384
H -2.0859404013 1.4823272377 -0.6298503355
H -1.5346228470 -0.8800127413 -1.7610226287
H -0.9099186287 -2.0113564551 -0.5218621648
