10
0 1
C 0.5414082619 1.2134075657 0.5952755845
C 1.3589540198 0.1834201791 0.1495488838
N 0.8042731839 -0.8282261606 -0.5975590646
N -0.4917770105 -1.1574325279 -0.5607087742
C -1.2797749337 -0.3125743251 0.0969414173
C -0.8256581252 0.9855413421 0.4708655717
H 1.3435317855 -1.4083481409 -1.2427827736
H 2.4281721696 0.0789973630 0.3489914220
H -2.3110330142 -0.6559907670 0.2025937732
H -1.5634263370 1.7880084715 0.5718769598
