12
0 1
C -1.2746306116 0.0805107529 0.4599609502
O -0.8100270387 1.1647473685 -0.1361873104
C 0.5800409474 1.0550878769 -0.5498572459
C 1.0816679285 -0.1709480744 0.1465908741
O 0.8405507987 -0.1257351248 1.5432652968
C -0.0948765110 -0.8169832967 0.7220024914
H -2.1898161671 -0.5747787113 -0.2139828114
H -1.7633097725 -1.0221623255 -0.8559969822
H 0.6120431606 0.9445795134 -1.6376524056
H 1.0743383082 1.9775432804 -0.2485443871
H 1.9648435608 -0.6988516389 -0.1920868075
H -0.2089186034 -1.8812906203 0.8866063376
