14
0 1
O 2.0883506364 0.8631243248 0.0799894049
C 1.8264391030 -0.4083882061 -0.1949408232
C 0.3361359958 -0.7271464728 0.2831245976
C -0.4243938409 0.3850479166 -0.4246638558
C -1.9212053829 0.4834750709 0.0779924355
O -1.6403638490 1.7972201404 0.1570176444
H 0.3019822639 1.2430928437 -0.1743590244
H 1.9459561610 -0.7333971866 -1.2564235030
H 2.3972450367 -1.1231169351 0.4520189059
H -0.0458164122 -1.7336563844 0.0501553992
H 0.3225742165 -0.5663973693 1.3666654394
H -0.4524537583 0.3578847788 -1.5180450212
H -2.0958725828 -0.0495094212 1.0306466800
H -2.6288395871 0.1598679004 -0.7069512793
