11
0 1
N -1.6959872366 -0.4226769767 0.1521972477
C -0.4806240972 -0.9835024322 0.0531275100
C 0.6668197568 -1.3119188200 -0.4332248354
C 1.1141099877 -0.1689963130 0.4224289803
N 0.9979412681 1.1728400921 0.1423682354
N 0.1117970319 1.5230667446 -0.7265418563
H -2.1377908427 -0.4984549878 1.0694673031
H -1.5668065454 0.5655486956 -0.1744944843
H 1.1480377583 -2.0565205678 -1.0677095774
H 1.6603864197 -0.3821269888 1.3419379549
H 0.1717934993 2.5560885566 -0.7672764780
