19
0 1
C 2.3372561064 0.4450553939 -0.6005064267
C 1.1132831490 -0.4591782721 -0.6759494418
C 0.1778111941 -0.2948948222 0.5144827550
C -0.4441595922 1.0941488030 0.6878165141
C -2.1112353455 -0.0460087218 1.0254933157
C -2.1562979583 -0.5203776351 -0.3930684623
C -1.1092474618 -1.0764221963 0.5158647439
H 2.9938534299 0.2996562802 -1.4594087450
H 2.9206002747 0.2445958380 0.3017321966
H 2.0534712463 1.5008386183 -0.5804356828
H 0.5576616835 -0.2587635194 -1.5975840646
H 1.4250961847 -1.5069147126 -0.7288542761
H 0.7298363177 -0.5319492290 1.4291951343
H -0.6233334601 1.6651322471 -0.2205669158
H -0.0113873721 1.7179434390 1.4694124170
H -1.6273112745 1.0167744031 1.3200332257
H -3.0100365152 -1.1641620395 -0.5750366877
H -1.8950099404 0.1014687485 -1.2412206462
H -1.1532176659 -2.1111856227 0.8364380470
