18
0 1
C -1.9611950332 0.4502565554 -0.5976657463
C -1.3404291779 -0.8298390760 -0.1193030432
C 0.1803265013 -0.8603753105 -0.3474805198
C 0.9818014207 0.0069211263 0.6157883353
C 2.4585507568 0.0978986400 0.2443576587
C 0.4129255305 1.3924481480 0.7774443586
N -0.6354611712 1.8405760343 0.3947215391
H -1.5591669592 2.0829265672 0.0566016912
H -1.8794983640 0.6162427660 -1.6723427429
H -2.9760717168 0.6264471868 -0.2369659210
H -1.5484204145 -0.9699024446 0.9481809833
H -1.7827526394 -1.6979124877 -0.6228397880
H 0.5430289386 -1.8861163598 -0.2443563465
H 0.3944009374 -0.5564579332 -1.3779833097
H 0.9115150155 -0.4251815477 1.6223675713
H 2.9036231382 -0.8978634816 0.1981743540
H 2.5802605146 0.5674281546 -0.7341630724
H 3.0068317229 0.6941144623 0.9742799984
