16
0 1
C 1.9984210062 0.3480484486 -0.1292887249
O 1.2656897981 -0.4251869732 0.7962225947
C 0.1122653044 0.1939021844 1.3100909167
C -1.1852195735 -0.1295929675 0.6100848901
N -1.9598558410 0.8250298987 -0.0015792624
O -1.1087971765 1.4525484689 -0.7434226422
C -1.3576285297 -1.2884939995 -0.1270297694
H 2.9569459107 -0.1512139274 -0.2650539249
H 1.4949458608 0.4230978544 -1.0974147512
H 2.1739148640 1.3600738021 0.2516299431
H 0.2270451291 1.2803553639 1.3686769331
H -0.0033677716 -0.1879114010 2.3304677313
H -0.6943598088 0.4561192569 -1.4288119295
H -0.6770086520 -2.1247167989 -0.0250436677
H -0.7176523396 -0.5645976808 -1.3269924598
H -2.3313181805 -1.4713305294 -0.5726268769
