14
0 1
C -1.5363824416 -1.0902899216 0.2827085570
C -0.7769324169 0.4497693461 -0.4801237141
C 0.3657029849 1.3130021657 0.0168124182
O 1.1883958827 0.6607932802 0.9725020696
C 1.5523556019 -0.6002666967 0.6403324974
N 0.9351856411 -1.3991981145 -0.1064646328
C -0.3672991677 -1.0340393853 -0.6091626761
H -1.1364596615 -1.0208020091 1.3095557971
H -1.6707895934 0.4623718756 0.2432329498
H -1.2355919650 0.8210920186 -1.3922453989
H 0.0120669740 2.2231373107 0.4970845029
H 0.9838235943 1.5903453362 -0.8448638538
H 2.4812989185 -0.8842332170 1.1270780869
H -0.5099873512 -1.4373149890 -1.6069126031
