16
0 1
C 1.9133617941 0.6429743327 -1.4501071545
O 0.6057563601 0.0602919179 -1.3485889965
C 0.3828163104 -0.6757015791 -0.2500264131
C -0.9379229983 -1.0795098618 0.0440237734
C -1.9565105098 0.2817578796 0.8124673527
O -1.4115871924 0.8617982475 1.8302268661
H 2.6964032135 -0.1242146192 -1.3565450870
H 1.9647483441 1.1092763221 -2.4381504084
H 2.0377635072 1.3983037072 -0.6604047920
H 0.7500191977 0.5540083197 1.2078504314
H 1.2514053836 -1.1036143565 0.2493733299
H -1.5650610936 -1.2273841263 -0.8384708614
H -0.9865310283 -1.9023145888 0.7594246951
H -2.1265685861 0.8812932271 -0.1109280563
H -2.8144211766 -0.3865263208 1.0327024608
H 0.0310524744 0.8102694987 1.5458468599
