12
0 1
O 0.4729610166 1.2488102817 2.2512707898
C 0.6294656874 0.6954469712 1.2177927524
C 1.6701010618 -0.1756077560 0.6711073951
C 1.4844498796 -0.8854023879 -0.3451909245
C -0.4270195155 0.8039237997 -0.0366137440
C -0.3843044798 -0.4553398231 -0.7999313466
N -1.7851500265 0.7945987964 0.0631662351
H 1.8783347406 -1.6485742147 -0.9905175189
H -0.0624919822 1.6645977848 -0.6079871033
H -0.7854425423 -1.3438284440 -0.3230350458
H -0.5516094054 -0.4093856188 -1.8709716428
H -2.0674144341 0.0165396108 0.6594551535
