14
0 1
O 1.9146625638 -0.0761329241 2.8579645285
C 1.9494384229 0.6957865710 1.6777242117
C 0.7606650576 0.5286856213 0.8374555752
C -0.2305771651 0.3932476403 0.1752305304
C -1.4246159378 0.2113739027 -0.6198852018
C -1.4846899330 -1.0253804909 -2.0706898814
N -1.9000059713 -1.2005452791 -0.7113064126
H 1.1099658985 0.1332581892 3.3366944930
H 2.0774980185 1.7626201643 1.8978510362
H 2.8330476152 0.3705186535 1.1265466313
H -2.2529293103 0.8673276064 -0.3612304084
H -0.4110293554 -1.3256771751 -2.1375349629
H -1.2108840115 0.5138233442 -1.7108133993
H -1.2350498924 -1.7509398236 -0.1710047398
