14
0 1
C 0.2343846780 1.3998728790 0.0328105975
C -0.2558280507 -0.0244919214 -0.1975807759
C -1.7339818954 -0.2259830856 0.1010897163
O 0.4609542400 -0.9400579247 0.7516581212
C 1.6442251294 -1.4105107752 0.4094122411
O 2.1830720209 -1.0530449370 -0.7416192415
H -0.3259784724 2.0937283030 -0.6102176446
H 0.0757751902 1.6935550424 1.0792757150
H 1.3002864956 1.4876842385 -0.2062669571
H -0.0113088989 -0.3557174611 -1.2138643011
H -2.0251607895 -1.2737572912 -0.0464999940
H -2.3357218532 0.4008120957 -0.5718860427
H -1.9621885071 0.0581095126 1.1372121551
H 2.7626147132 -1.8249226748 0.0016944107
