17
0 1
C 2.0244889449 -0.0198596609 -0.7761629476
C 0.8394968644 0.3769572602 0.0759407360
O 0.0641890987 1.3363637965 -0.6185541027
C -1.2435006144 1.3694887970 -0.0543397641
C -1.4655307661 -0.0164447764 0.5921800196
C -0.1813972681 -0.6994739389 0.3818691593
O 0.0503825756 -1.9310029265 -0.0053462031
H 2.6207493603 0.8640195541 -0.9966216974
H 1.7013947003 -0.4390579929 -1.7326380365
H 2.6690331169 -0.7308054899 -0.2538601747
H 1.1991298458 0.7953425267 1.0306274035
H -1.9477944977 1.5770333609 -0.8590364049
H -1.3083318251 2.1729791964 0.6874611623
H -1.7461885349 0.0832432254 1.6345272770
H -2.2274925056 -0.7549250281 0.2315418169
H -1.9181080608 -2.1800878455 1.1632702864
H 0.8662305660 -1.9491920581 -0.5302835299
