12
0 1
N 2.0420710698 -0.0200096572 0.0408013397
C 0.7334482665 -0.0659946344 -0.1030966872
C -0.1145268499 1.2078572439 -0.0968218583
N -1.0606580784 0.7672359003 0.8530678433
C -1.4247075725 -0.2606688605 -0.1819881183
O -2.5310519405 -0.7826878798 -0.2733343377
N -0.0862425269 -1.0622103903 -0.1830049500
H 2.6081663723 -0.8410940961 0.1566441321
H 2.4789930839 0.8849877433 0.0750225485
H -1.0649012902 0.4347416224 -1.1748114375
H -1.8244872922 1.4277534009 0.9427445937
H 0.0492377580 -2.0517573926 -0.0502010682
