16
0 1
C -2.0243813393 -0.5519762457 0.2880029927
C -0.6494868284 0.0217965604 -0.0236895662
C 0.4964543606 -0.9497202568 -0.3769606035
O 2.0163194276 1.6800816235 -1.2897280719
C 0.2659364992 0.4366164327 1.1485225312
O 1.3956424670 -0.3082976404 0.5848103175
H -2.4913624258 -0.9696218449 -0.6158105590
H -1.9555917910 -1.3550916298 1.0368568309
H -2.6963096159 0.2239553173 0.6825147101
H -0.7077297879 0.8270775556 -0.7662739580
H 0.8985091380 -0.8997078640 -1.3974812908
H 0.3021556960 -1.9972150957 -0.0956089385
H 2.6422233336 1.3278721267 -1.9455505678
H 0.4998854824 1.5040501848 1.2546363047
H -0.0329047056 0.0167393572 2.1227666889
H 2.0405930895 1.0169464193 -0.5624748202
