17
0 1
C 2.1448220142 0.1186088201 -0.0944781872
O 1.0656207489 -0.0359042336 0.8023646946
C -0.2157007586 0.0002861073 0.2826945710
C -0.4983418613 0.7655801543 -0.8756824136
C -1.1913996435 -0.1083224327 1.3297369634
C -0.6216878920 -1.5914068023 -0.1081977224
O -1.5477377696 -2.0110524057 -0.7183164307
H 2.0692505275 -0.5600612308 -0.9512551217
H 3.0427405263 -0.1236362384 0.4704029735
H 2.2208997213 1.1467807888 -0.4578758556
H 0.2844024300 1.0235455590 -1.5762087302
H -1.0961304238 1.9998042565 0.3541087352
H -1.4851943880 0.6447885394 -1.3044615525
H -1.3401040041 1.7412696970 1.1057327689
H -2.2299689227 -0.2166295526 1.0535642754
H -0.8716890706 -0.4942115588 2.2895326762
H 0.2568987658 -2.1808014676 0.2141593558
