13
0 1
C -0.8551201688 -0.5641310069 -1.0602408386
O -0.6956186291 -0.3228203723 0.3219215600
C 0.3056624569 1.2064882303 0.8711264672
N -0.0892051386 2.3029067055 0.5592857045
N 1.0253031951 0.3795934409 1.5277871823
C 0.4684329416 -1.1300404698 1.0146066601
O 1.2295566166 -1.7454377103 0.3066818066
H -1.6488768062 -1.2964964958 -1.2201078162
H 0.0757685619 -0.9339381271 -1.4950831432
H -1.1453355811 0.3735770072 -1.5414298150
H -0.5442976777 2.5356264761 -0.3062172408
H 1.9898470629 0.5999671057 1.7263947625
H -0.0094168334 -1.5319497833 1.9155487105
