14
0 1
C -1.9428258604 0.7146463402 0.1345692929
C -1.0679559722 -0.5066944340 -0.1438058187
C 0.3747177926 -0.3122207619 0.1856144160
C 1.5142273535 -0.2653878180 -0.6637578144
N 2.6646381226 -0.0670962126 -0.1295875884
N 1.8837319156 0.0570634951 1.8671687162
N 0.8383868086 -0.1181901730 1.4240405259
H -2.9863520652 0.5142396582 -0.1161551018
H -1.8997345406 0.9906935107 1.1899986029
H -1.6087810481 1.5751736501 -0.4479993427
H -1.4652905251 -1.3736915588 0.3923714706
H -1.1222431846 -0.7640360443 -1.2047374725
H 1.3594684039 -0.4029570295 -1.7325772173
H 3.4580117997 -0.0415426221 -0.7551446688
