15
0 1
N 2.3872974045 -0.2584159993 0.1097839701
C 0.4407438767 0.3299194713 0.4841689193
C 1.6681651345 1.0685272808 0.2305059115
N 1.9837257536 2.2349736094 0.1449842964
C -0.6204192445 0.1478259759 -0.4582270430
C -2.0524221978 0.2142521049 0.0895599517
C -1.5117414509 -1.0824069187 -0.3408183439
H 3.0947550946 -0.4717491463 0.8029099244
H 2.6783522096 -0.5047988947 -0.8271944267
H 0.2790410887 -0.0383123883 1.4973244207
H -0.4618046262 0.5636602647 -1.4441777152
H -2.1657472624 0.4128585632 1.1463252920
H -2.7534868233 0.7338783070 -0.5487041138
H -1.8426137091 -1.4990642151 -1.2821107769
H -1.2420172482 -1.8119120147 0.4107327334
