16
0 1
C 1.7473302957 0.7936745088 1.1431839653
C 2.1122592733 -0.4726489657 0.7553030108
C 1.6763165909 -1.4888393323 0.2088284686
C 0.3917557817 -1.6653503772 -0.2765540133
C -0.7921020415 -0.0412468904 0.2537649153
C -1.4196454580 1.2061141185 -0.3085821983
N -1.6106880185 -0.0531173000 -0.9775704122
H 2.0855860844 1.6436248943 0.5552625994
H 1.6070893426 1.0083723168 2.1998040992
H 0.4708754894 0.4362534356 0.6020605738
H -0.2681376258 -2.3715939128 0.2204655974
H 0.2186466865 -1.5834713458 -1.3442708029
H -1.2912119396 -0.3968052506 1.1524937178
H -0.7909186052 1.9153884883 -0.8361076078
H -2.2467448093 1.6487720377 0.2384535988
H -2.5317900467 -0.4301804254 -0.7886435117
