15
0 1
C -0.1629793096 -1.4686681763 -0.3938064708
C -0.5015283833 -0.0546361235 -0.0341839832
C 0.3661517745 1.0418489376 -0.6159747040
C 1.7963346853 0.8655680200 -0.3587810367
C 2.9596906771 0.6981843128 -0.1325849387
C -1.5239530019 0.2286874838 0.8484024341
C -2.5027487543 -0.0318539381 1.6693812829
H 0.2929944599 -1.5138435742 -1.3852573337
H 0.5628283852 -1.8853727402 0.3090056740
H -1.0579400952 -2.0898743945 -0.3623504908
H -0.5839349501 0.6894630442 1.3817095245
H 0.2046542082 1.0431046751 -1.7000557264
H 0.0381356119 2.0168404254 -0.2509135000
H 3.9955303726 0.5557636253 0.0676115631
H -3.5184376803 -0.1009005775 1.2777387056
