12
0 1
O 1.7188768252 1.2151466605 1.3717381504
C 1.9396305340 0.4456127176 0.4852254193
C 0.9168436834 -0.5770063603 -0.0136490748
O 1.2865652391 -1.6674287820 -0.3475432055
N -0.4270488572 -0.1982612741 -0.0160875790
C -1.4452151095 -1.0038334920 -0.3786485691
C -0.9305449301 1.0767615083 -0.0248325949
H 2.9352999787 0.3192764637 0.0226229078
H -2.3568210036 -0.9377427641 0.1884565095
H -1.3167424708 -1.7202717758 -1.1813370572
H -1.4547453920 1.3908971413 -0.9111290716
H -0.8281994972 1.7143709569 0.8422191651
