10
0 1
C 0.8060593253 0.9797915245 0.0901982165
C 0.9779237065 -0.4044978526 -0.3125688102
N 0.9246083576 -1.3560055971 0.7300898414
N -0.3562411741 -1.5387315098 0.6583870677
C -0.9529143396 -0.4643916649 -0.1415741611
C -0.5668708996 0.9357615326 0.0445172275
H 1.4925566576 1.6275514486 0.6273143400
H 0.8863213431 -0.7758835789 -1.3371093688
H -1.9198046111 -0.7407318005 -0.5700281505
H -1.2916393658 1.7371384981 0.2107737975
