9
0 1
N -1.8681738212 0.2170510158 0.3304201288
C -0.6874697617 0.4792371454 0.8305397624
O 0.1145002506 -0.9788525706 1.3331348956
C 0.4169730355 1.2318726542 0.8750633630
C 0.9771603447 -0.0615900843 0.9690630131
C 2.2947259630 -0.4834360180 0.5407819335
N 3.3412375282 -0.8141002359 0.2075640832
H -2.2639059439 0.8396152654 -0.3535942328
H -2.4199495953 -0.5380901719 0.6977730530
