14
0 1
O 0.4282050967 1.0593579556 1.4185945516
C 1.0351690691 1.3070384144 0.3870462367
C 0.5212512901 0.9603090304 -0.9322350424
C -0.0950970646 -0.4128733441 -1.0876002740
C -0.2151026048 -1.2727804969 0.1395110580
C -1.0046898564 -0.3731353817 1.0350468005
N -0.8941763331 0.7573166687 -0.9723598689
H 1.9993259938 1.8249428199 0.4673910634
H 1.0717132451 1.3745439356 -1.7745319053
H 0.0839751149 -0.8793709428 -2.0599607131
H 0.7415481313 -1.5641479568 0.5765102471
H -0.7800600478 -2.1972660484 -0.0394931245
H -0.8751707097 -0.4634781550 2.1058877163
H -2.0027173246 -0.1145004991 0.7242302547
