11
0 1
C -1.2657567671 0.2720512240 -0.4527984808
C -0.0922458724 -0.1225787612 0.4752203411
O -0.4261724062 -0.5999404836 1.6435215259
C 0.9785762388 -0.9404062838 -0.1290311746
C 0.9716374326 1.0559054918 0.3881152923
N 1.8795600743 1.8122134547 0.4076993603
H -1.9085455654 -0.6089966472 -0.5722973044
H -0.8983917967 0.6083295389 -1.4316413264
H -1.8406981351 1.0728190997 0.0218076420
H 0.9511191661 -1.3406027767 -1.1499232320
H 1.7299686310 -1.3341888566 0.5549133565
