11
0 1
N 2.9716070386 0.4413618034 0.5125407862
C 1.9844858873 -0.0831820994 0.1684627136
C 0.7237024027 -0.7098816784 -0.2335264451
C -0.4689662502 0.0293676226 0.3777418511
C -1.0480313064 1.2043986854 -0.3374676694
O -1.7612289518 -0.4672357293 -0.0769184080
H 0.7196243503 -1.7628358734 0.0862696512
H 0.6368582838 -0.6817014361 -1.3290766559
H -0.4735433043 0.0102753794 1.4714255928
H -1.6006284942 1.8342785142 0.3851234982
H -1.7734006558 0.0721708116 -1.0220719148
