11
0 1
C -1.5084070307 0.1826063823 -0.2011817776
C 0.6028539359 -1.0413851978 -0.9153816151
O 1.7715715610 -0.4184380609 -0.8448475713
C 1.7632774416 0.5090114746 0.3034221145
N 0.6856961985 0.5143999324 0.9551335080
C -0.1858311847 -0.4641956288 0.2512076916
H -1.3139891088 0.9832117310 -0.9258661776
H -2.0260019439 0.6091239712 0.6657869359
H -2.1465241523 -0.5722581733 -0.6747200812
H 2.6809284868 1.0720541049 0.4443658347
H -0.4122732034 -1.2888125356 0.9500321381
