18
0 1
C -1.9914244027 -0.1810417904 -0.6757173754
C -1.6117992887 1.0416222531 0.1476497162
C -0.6867849597 0.7758683102 1.2808883274
N 0.6273303916 -0.9633597475 0.9707476904
C 1.4035052170 -0.2060403468 0.2657191792
O 1.0569131516 0.9993293845 0.1377734639
C 2.6699675032 -0.6686174896 -0.4083493380
H -2.7535269786 0.0751364749 -1.4132111035
H -1.1193523877 -0.5705355766 -1.2000251580
H -2.3820737740 -0.9795949936 -0.0420795959
H -1.2157413863 1.8298810025 -0.4896009444
H -2.5167168104 1.4377243836 0.6355355684
H -0.2241462473 1.6328202295 1.7484507828
H -1.0402454794 0.0449821278 1.9911096809
H 0.8697865887 -1.9411712467 1.0701506080
H 2.5799483723 -0.5046070666 -1.4825368011
H 2.8828162726 -1.7193587557 -0.2209682071
H 3.5035262176 -0.0624521529 -0.0537424939
