11
0 1
N 0.9540713479 -0.2272012545 1.5665137487
C 0.9084953506 0.5751963959 0.6278131932
C 0.9406479943 0.2879381569 -0.8629896164
O -0.1799848621 -0.5794023133 -1.0407933589
C -1.0800434628 -0.7367847228 0.0567526595
C -0.6185524511 0.3386409873 1.0250274164
N -0.5336910729 1.5570071979 0.8368488312
H 1.8529546135 -0.2531576218 -1.1110113407
H 0.8311941529 1.1791167709 -1.4792647085
H -2.0932744199 -0.5160089653 -0.2770594816
H -1.0096291904 -1.7452906311 0.4617046571
