14
0 1
C 1.2141181202 -0.1211022753 -0.9090950063
O 0.2902322486 -1.1653322786 -1.1465038054
C -0.7406281301 -1.0088192786 -0.2944507345
C -0.4373654486 -0.7163840195 1.1962629548
C -0.8721462239 0.3521537372 0.3080126582
O 0.1159491112 2.0923105327 0.2242018799
H 1.8528207262 -0.3222878250 -0.0383772826
H 0.6262356416 1.3813164222 -0.3484404690
H 1.8362662199 -0.0244222468 -1.7998697732
H -1.6197472538 -1.5830936514 -0.5716153511
H 0.6155638597 -0.8429353545 1.4183870729
H -1.0978143121 -1.0099487332 2.0056845644
H -1.8119368241 0.8580148914 0.4728495581
H -0.3548737347 2.6561900793 -0.4022092659
