12
0 1
O 0.9907738180 2.2728489261 0.7138012262
C 0.5397851815 1.1966855611 0.4390901475
N 1.2537735589 0.0664552279 0.0669251001
C 0.3794103505 -0.9310783332 -0.2852815174
C -0.9197356309 -0.7348844854 0.3503403640
O -1.2062753937 0.0336028602 1.5464027529
C -0.8882626288 0.7114997981 0.3616738780
H 2.2587163175 0.0099776800 0.0322950735
H 0.7707500844 -1.8596682567 -0.6810054562
H -0.3899556239 -0.1485885684 -1.5517161415
H -1.7800270249 -1.2413542023 -0.0652823814
H -0.9964930087 0.6032797927 -1.1467710456
