15
0 1
C -0.9119524322 -1.6054271336 -0.7457014302
C 0.1352950408 -0.9302157821 0.1299846074
C 0.9635452183 0.3025592138 -0.9145931671
C 0.8206782172 1.5768550063 -0.3650089591
C 0.3340793979 2.1471256831 0.6337101151
C -0.3350017523 -0.2674748263 1.2700160539
C -0.4219609143 0.8729334221 1.7716988534
H -1.7034413249 -0.9004883042 -1.0043137536
H -0.4623826453 -1.9796725188 -1.6670290069
H -1.3649085910 -2.4500589779 -0.2260681708
H 0.9661393426 -1.6003884151 0.3536355623
H 1.9921580008 -0.0504935161 -0.9701264176
H 0.4594739357 0.1674380673 -1.8707553858
H 0.1945028822 3.1096515466 1.0874669065
H -0.7659023756 1.3933735347 2.6452591927
