15
0 1
C -2.3932169525 0.1045465025 -0.1592426375
N -0.9690543737 -0.0532080239 0.0548084981
C -0.3977870001 -0.9267192367 0.8936408379
N 0.9094838031 -0.7890245475 0.7853220682
C 1.2275444539 0.1852752239 -0.1342248974
C 2.7037182352 0.2382175696 -0.1869805560
C 0.0285688123 0.6549139824 -0.5958216397
H -2.6466992908 -0.1323718566 -1.1926296937
H -2.9327597514 -0.5725472999 0.5000598999
H -2.6953407258 1.1279179154 0.0611104466
H -0.9428080601 -1.6099392682 1.5233615019
H 3.1012515735 1.1987361437 0.1491126434
H 2.0400381276 -0.9812811665 0.9535507200
H 3.0973420863 0.0161661950 -1.1816618115
H -0.2147209375 1.4116618669 -1.3217073803
