15
0 1
C 2.1427612941 0.3667504918 -0.1474146223
N 0.8658127746 0.0831146536 0.0151330867
C 0.3998445224 -1.2317851552 -0.0918822479
C -0.9412850177 -1.1483135313 -0.2043648619
C -1.3398201285 0.2492658545 -0.0151825610
N -2.6533912892 0.6438577031 0.1271749824
C -0.2138581334 0.9788552983 0.1896305995
H 2.5910090228 -1.3914937004 0.6251218405
H 2.7368646857 -0.1804166717 -0.8582495281
H 2.4807640447 1.3469441196 0.1716319118
H 1.8046522111 -1.7477320350 0.3544642361
H -1.6333795060 -1.9779074300 -0.1913463954
H -3.3044019002 0.2061274382 -0.5022098700
H -2.8140454697 1.6303655740 0.2371028782
H -0.0571901108 2.0400183905 0.2900065509
