14
0 1
C 2.5269755291 0.2388097959 -0.3190369656
C 1.1867888644 0.7193268106 0.0926654649
C -0.0327216187 0.3303394867 -0.0102151287
C -1.0284582950 -0.8259382311 -0.4079400028
C -2.1923330423 -0.2984314429 0.3413919359
O -1.1347851367 1.2028786287 0.5956095585
H 3.2352821275 0.2528449419 0.5250716469
H 2.5255967380 -0.7877779557 -0.7349531973
H 2.9528862953 0.9021282743 -1.0893858481
H -1.1982346736 -0.8733263750 -1.4916108768
H -0.6642883247 -1.7994007473 -0.0565473023
H -3.0370936291 0.1507216936 -0.1757233791
H -2.3991223110 -0.6655469154 1.3465908703
H -0.8231775231 1.4774580358 1.4952472243
