12
0 1
O 0.1280003789 -1.3247327659 -1.3123558174
C 0.0648697584 -0.2998314088 -0.3666314507
C -1.2018461671 -0.0696455279 0.3970233568
C -0.1738021663 1.1882784294 -0.7471630362
O 0.8082112693 1.6036652965 0.1458820481
C 1.3149913300 0.2397639475 0.3438394793
H -0.0694292735 -2.1591823883 -0.8449052971
H -2.0764288195 -0.5907163830 0.0002986985
H -1.1647643806 0.1119699755 1.4720610123
H -1.3906225792 1.1708612280 -0.1907223196
H 1.4749822573 0.0130419822 1.4056767602
H 2.2297383923 0.0890136147 -0.2413154343
