11
0 1
C -1.0276635822 1.4052350380 -0.0243314723
N 0.0928859151 0.4864359236 -0.0992615179
C -0.0142837028 -0.8460214793 0.1448181927
O -1.0354763873 -1.4624992352 0.4563757071
C 1.3229575298 -1.5828317569 -0.0070878047
O 2.3702100606 -1.0385321004 -0.3115228027
H -1.9118681662 0.8190684287 0.2461149908
H -0.8551357355 2.1760361900 0.7406705089
H -1.1994891207 1.8961764165 -0.9930945791
H 1.0220691503 0.8214249566 -0.3431465085
H 1.2357940389 -2.6744923817 0.1904652859
