12
0 1
O 2.5476926039 -1.5617953102 0.5386595158
C 2.3487946170 -0.7371440404 -0.2208585591
O 1.1970283806 0.6659539486 0.1745047511
C -0.0555589865 0.2424796101 0.5818153541
C -0.9879062042 -0.4368637069 -0.3858399961
C -1.2619570329 0.9680150187 0.0860868281
H 1.8870262120 0.0820279912 -0.8955927938
H -0.0845753108 -0.1109920678 1.6088094176
H -0.6544720324 -0.5514061411 -1.4100465028
H -1.6162913325 -1.2408716335 -0.0256522201
H -1.0787597782 1.7669060017 -0.6201678380
H -2.0828151357 1.1378053298 0.7702010432
