12
0 1
O -1.5645838856 0.6873663084 0.6054284675
C -0.9518132093 -0.2562935193 -0.2350478922
C 0.1464239979 0.1620451281 -1.1547217948
C 0.4731210546 -0.6470109804 0.1105245591
C 1.1946618667 0.0522212603 1.2062934253
O 2.0265991710 -0.4815922897 1.9218411229
H -2.1170060433 1.2583690010 0.0390581587
H -1.5927848234 -1.0844196982 -0.5562374354
H 0.2732881242 -0.3379720617 -2.1142174588
H 0.4390882963 1.2124466590 -1.1319712367
H 0.7456136954 -1.6941372157 -0.0117588139
H 0.9273917556 1.1289774083 1.3208088983
