15
0 1
C -1.7837920323 -0.2664913098 -0.5966985399
N -1.1919698836 0.4745666053 1.0151807568
C -0.5027526122 -0.4656373729 1.6835295454
N 0.7246656013 -0.7005492209 1.2206531738
C 0.8794099966 0.0998638998 0.1542795205
C 2.1158616148 0.1178188115 -0.6792890370
C -0.2983691070 0.8241859784 -0.0239385809
H -1.3016006527 -1.2364334794 -0.6425545910
H -2.7878197412 -0.3146398640 -0.1932901520
H -1.8009615834 0.2329890619 -1.5621410475
H -0.9283195558 -0.9876418371 2.5281356747
H 2.1703050062 -0.7638229556 -1.3228133889
H 2.1477898846 1.0031332617 -1.3156459226
H 3.0018486868 0.1145464095 -0.0443191679
H -0.4551186222 1.7222710118 -0.6011712433
