10
0 1
N 3.1318944900 -0.5839522608 -0.1631907889
C 2.0134767284 -0.3326491951 -0.0928937960
C 0.6263143976 -0.0312871359 -0.0082829541
C 0.0849308267 1.1630630085 0.3427140620
O -1.2519482768 1.0885786324 0.3176310560
C -1.5831363792 -0.1726082869 -0.0551659984
C -0.4771067256 -0.9105751003 -0.2702133536
H 0.5196488729 2.1068125110 0.6249524064
H -2.6366173953 -0.3848861370 -0.1210069365
H -0.4274565388 -1.9424960359 -0.5745436967
