13
0 1
O -1.4791014693 -1.0040172421 -0.0173127115
C -1.5155173767 0.3875495508 -0.4084145424
C -0.3851383315 1.0961766150 0.3561721589
N 0.5933412596 0.1876350939 -0.3398408364
C 1.5100514275 -0.6000944148 0.4802925378
C -0.5059428319 -0.5032137838 -0.9801041488
H 0.9991733039 -1.1776116979 1.2717983113
H -2.4391192256 0.7894949547 -0.8201197301
H -0.4368769133 0.9760007984 1.4479812434
H -0.2186927657 2.1482785209 0.0885267054
H 2.2450816462 0.0695184752 0.9472703969
H 2.0527121631 -1.2996269639 -0.1713695901
H -0.4142758862 -1.0505369063 -1.9169667944
