10
0 1
C 0.6666514929 1.0520214551 -0.2669846573
C 1.6104401961 -0.0329382460 -0.1398207223
N 0.9446476568 -1.1819490680 0.1519475246
N -0.3755982493 -1.4677998229 0.3297194996
C -1.1720033966 -0.4201167247 0.1987259922
C -0.6954133463 0.8804565684 -0.1010602121
H 1.0612606032 2.0423056004 -0.5046404050
H 1.4977885501 -2.0311082590 0.2689756806
H -2.2343879217 -0.6253978442 0.3358091144
H -1.4069695851 1.7033513409 -0.1948578147
