16
0 1
C 1.3711528650 -0.6807564123 0.9691835669
C 0.5876558430 -0.3194125552 -0.1536866749
C 0.6471575139 0.5537725798 -1.3206906076
C -0.0228389848 1.2494591074 -0.1543810115
C -1.2783028800 0.7899423008 0.3126832738
N -1.9203542447 -0.2759256954 -0.3552336478
C -0.7971659768 -0.9413791040 0.2588287715
H 1.4091395326 -1.7519788994 1.1613149052
H -0.0887755087 -0.7064203443 1.4623057570
H 2.2818848254 -0.1451697404 1.2243176905
H 1.6125977269 0.9657395785 -1.5860383978
H 0.0368794206 0.3107800734 -2.1868579516
H 0.5244585455 1.9985497834 0.3967521819
H -1.7522489671 1.1884237793 1.1992752178
H -1.8706374741 -0.2164261989 -1.3693954778
H -0.8688342365 -2.0291852525 0.3379984043
