12
0 1
N 2.1131014363 -0.0064341106 0.0520561861
C 0.7329033051 0.0936694124 0.0249409465
C -0.0820963376 1.1839911586 0.0557160066
N -1.4133020928 0.6918899856 0.0934314253
C -1.3305788706 -0.6379924077 0.0747077134
O -2.1075189478 -1.6546333827 0.0881956895
N -0.0630822730 -1.0323577837 0.0332359485
H 2.4576329371 -0.8258823144 -0.4218311244
H 2.5905760952 0.8256827780 -0.2514149055
H 0.1377330121 2.2361271544 0.0692956578
H -2.2560188647 1.2320232017 0.1286393168
H -0.7995973993 -2.1011976916 0.0516431393
