11
0 1
N -1.9291431397 -0.1643740862 0.1474900178
C -0.6168221905 0.3274956925 0.0771703971
C 0.4003688138 -0.7448776865 0.1076520539
C 1.6866780744 -0.4925756290 -0.1121091944
N 2.8490853187 -0.3088811219 -0.4615414328
N -0.2531948454 1.5668680776 0.0529493769
H -2.0843831336 -1.0690360312 -0.2918024335
H -2.6450543428 0.5099051346 -0.1120641224
H 0.1136291015 -1.7642588520 0.3655816577
H 3.5133438822 -0.0204098133 0.2669919822
H -1.0750055389 2.1834633153 -0.0056513025
