21
0 1
C -2.2441460117 0.8615787685 -1.1956366086
C -1.6531469750 0.6433501506 0.1834570317
C -0.8624657735 -1.8520326852 -0.1195824547
C 0.4671119073 -1.4941662763 0.3140778213
C 0.9344367886 -0.1084616957 -0.0788898929
O 2.0194369728 0.3579375401 0.5868706325
C 2.9115177270 1.1553436769 -0.1633064414
H -3.0575499127 1.5930741814 -1.1654322417
H -2.6418163018 -0.0636102295 -1.6127904222
H -1.4994679933 1.2427703187 -1.8995901987
H -1.4708583950 1.6046821347 0.6779554666
H -2.3031772613 0.0674909621 0.8306193694
H -1.4970882877 -2.4468642473 0.5237939234
H -1.0775940995 -1.9091654690 -1.1804624498
H 1.2023953137 -2.1036954413 -0.2436964293
H 0.6374540592 -1.6439508697 1.3808781845
H 0.9766070837 0.0729854376 -1.1617574434
H -0.4198934144 0.3665966286 0.1562279241
H 3.3396499641 0.5849304407 -0.9945397157
H 3.7074199797 1.4651267706 0.5109438727
H 2.4086986295 2.0438539037 -0.5576069282
