16
0 1
C -0.5994004785 1.4675467929 0.3424395834
C -0.5559100555 -0.0417820963 0.1521075706
C 0.4006260664 -0.3331592509 -1.2186673222
C 1.6384760815 -0.4800361185 -0.5364742796
C 1.9983531834 -0.6605503508 0.6385480946
C 0.0907151160 -0.7947026687 1.2545764682
N -1.7276742908 -0.7345519443 0.2501196457
H 0.3942788113 1.9161048455 0.2995360816
H -1.0415068361 1.7048656888 1.3129240784
H -1.2185843945 1.9196750504 -0.4353164882
H 0.3075362870 0.5197623387 -1.8875132939
H 0.0603360473 -1.2466418997 -1.7042667192
H 2.7698826956 -0.8519720666 1.3564296284
H 0.0494111506 -1.8723863564 1.1764127453
H -0.0259011570 -0.4023240682 2.2628744340
H -2.5137252263 -0.0954728958 0.3837467732
