17
0 1
C 2.2475292312 0.0506257381 -0.0130770645
C 0.7959901660 -0.1762799742 -0.1094097348
C 0.0675063295 -1.2396733950 0.3831362865
C -1.2790979497 -0.9817260100 0.1705196296
C -1.4479755970 0.1037926509 -0.8340072360
C -0.1258805444 0.9037293913 -0.6165963061
O -0.1448049235 1.6887251452 0.4996448806
H 2.3967263178 1.0336716787 0.4409869456
H 2.6791971098 0.0952410700 -1.0183455228
H 2.7640309422 -0.7114237288 0.5685682059
H 0.4596370545 -2.0325476627 1.0047027563
H -1.6048652935 0.2331921493 1.6311455178
H -2.0945769045 -1.5812006152 0.5551759694
H -1.4621634658 -0.3426795414 -1.8323841006
H -2.3452836394 0.7038877429 -0.6980707277
H 0.1904364124 1.4328118863 -1.5252787082
H -1.1023622457 0.8536344745 1.3811432089
