13
0 1
C -1.8819260313 0.0885279069 -0.1125992578
C -0.4113720149 0.0544188342 0.0918907568
C 0.6369775510 -0.3724444638 -0.7635992474
C 1.8326731626 -0.1711570723 0.0785689366
O 2.9248144594 -0.1001401731 -0.5983787873
N 1.5288795840 0.2596566532 1.2896000104
N 0.1600504996 0.3508516676 1.2408161349
H -2.4088269403 0.3643484648 0.8012230600
H -2.2405377396 -0.8904518349 -0.4344280026
H -2.1380465713 0.8058304155 -0.8933406261
H 0.5162893251 -1.2135043303 -1.4358428301
H 1.7474589900 0.1641476736 -1.3523397710
H -0.3136952740 0.6924142584 2.0610286236
