16
0 1
C 0.8333354473 1.1719110753 0.4247580970
C 0.1828128471 -0.1653091124 0.0333401335
C 1.2284076705 -1.1330569724 -0.5003203117
C -0.7215721744 -0.8043954039 1.0943364997
O -2.0294584150 -0.1894859106 0.8130567412
C -2.0415838201 0.2134426953 -0.3811855370
N -0.8723214675 0.0863720185 -0.9885705194
H 1.3446244260 1.6480664195 -0.4194160035
H 1.5706423140 1.0001414186 1.2109803156
H 0.0812426996 1.8647080766 0.8097778924
H 1.9073977877 -1.4103070811 0.3077198660
H 0.7464007476 -2.0403386146 -0.8599346020
H 1.8260431148 -0.6872780755 -1.3024187395
H -0.6875542673 0.5107661762 -1.8817346571
H -0.4841610362 -0.5063137437 2.1161537354
H -2.9584178741 0.5406450341 -0.8523019106
