14
0 1
C -1.2785058962 -0.2684470014 0.6792062048
C -0.9519382480 1.1989227079 0.2554334566
C 0.9322584474 0.8453733954 -0.0459655226
C 1.1317931338 -0.6592882787 0.1435406680
C -0.3153943963 -0.8625506411 -0.3719249402
C -0.2700606441 0.5979070787 -0.9689143406
H -2.3207531609 -0.3942158139 0.3437218804
H -1.2035991996 -0.5788980781 1.7326321626
H 0.3655875372 1.3961509385 0.8775990198
H 1.6849186696 1.5907872330 -0.3104966956
H 1.8584271271 -1.0267866248 -0.5934885523
H 1.3925694889 -1.0337088962 1.1442777864
H -0.5602982353 -1.7909233035 -0.9027103613
H -0.3149186234 0.9593312844 -1.9969747660
