17
0 1
C -2.2279103989 -0.3834598029 -0.2060274332
C -0.7436857009 -0.3211309085 -0.5270922673
O -0.4222877472 0.8753692974 -1.2264555121
C 0.1241834091 -0.4579007546 0.7255795862
C 1.6231194289 -0.4681467145 0.4172596873
C 2.1565934179 0.7570097860 -0.0436135750
O 2.2599929396 1.5886185859 0.9204865102
H -2.4910359212 -1.3399246382 0.2495130384
H -2.5035072947 0.4073993962 0.4989068652
H -2.8212315762 -0.2581984419 -1.1122631150
H -0.4876941341 -1.1216585620 -1.2274548896
H -0.7374166489 1.6211011612 -0.7087622773
H -0.1373522952 0.3587264868 1.4081738771
H -0.1329109882 -1.3817001055 1.2497994118
H 1.9287214079 -1.3682655006 -0.1149278462
H 2.0253701383 0.5154924394 1.5024241687
H 2.5208179641 1.0431212758 -1.0312472292
