15
0 1
O 2.2525535917 0.5439925798 0.2858980995
C 1.4065592788 -0.5144296574 -0.1346526576
C 0.0255566035 -0.2615189381 0.4091031467
C -0.6780411247 0.9109906786 -0.3029092344
C -1.6872588840 -0.0500941617 -0.8453626292
C -1.0982200357 -1.1583989271 -0.1909848342
O -1.2630362866 -2.3557124893 -0.1041685455
H 3.1449459705 0.3687901085 -0.0160359206
H 1.7507765515 -1.4826203680 0.2433904635
H 1.3635471298 -0.5762659801 -1.2300243149
H 0.0538129816 -0.1914862826 1.4999481212
H -0.9274562318 1.6953603243 0.7241599271
H -0.1754730758 1.6831245071 -0.8828942346
H -2.5084745328 0.1229128512 -1.5238144860
H -1.6662859361 1.2933107547 0.3064950990
