12
0 1
O 2.5917371865 0.1718701081 -0.1457081225
C 1.4385857582 -0.2813529589 -0.3970979532
C 0.5594971518 0.2712607139 0.5826896973
C -0.5676215474 1.1697477405 0.0788424091
N -0.8350407596 -0.0703012847 0.7163738728
C -1.4784958353 -1.1264329572 0.1056158030
O -2.3825839940 -1.0187064010 -0.6794634211
H 1.3008761316 -0.9833021341 -1.2210762507
H 2.0471187137 0.6623737620 0.8014441285
H -0.7834829009 1.2269277540 -0.9841006925
H -0.7641451344 2.0665506818 0.6529021083
H -1.1098637704 -2.1016710246 0.4675614210
