11
0 1
O 0.1127509273 0.4866886349 -2.3384332162
C -1.0495800754 0.5884671953 1.2798643579
C -0.1451297361 -0.2156227071 0.7282681600
C 1.1774800094 -0.6523541883 0.3602843889
O -0.0942381051 -1.3501807835 -0.0325054606
H -0.1767961546 -0.3756697907 -1.9842510197
H -0.7271831651 1.4577745294 1.8478634777
H -2.1140319125 0.3782301926 1.1943956275
H -0.3471795267 1.1153437649 -1.7531708597
H 1.7878717478 -1.2209687234 1.0646924665
H 1.6822349910 -0.1801981241 -0.4843339223
