8
0 1
O -3.2689275093 0.5786465225 0.3150460773
C -2.1201129275 0.3378797566 0.1791424413
C -0.8173384238 0.3413170085 0.0024477135
C 0.2566876726 -0.4662865620 -0.0781603291
C 1.6126998841 0.1000696154 -0.3115428328
O 2.6142827084 -0.5956526534 -0.3944364126
H 0.2097712598 -1.5580031681 0.0175739103
H 1.6393513358 1.2097964806 -0.4052985677
