18
0 1
C 2.8477918156 0.3983530632 -0.0492024645
O 1.6736379716 0.9101019913 -0.6262935811
C 0.6403441931 0.0008644606 -0.6132308917
C -0.1384870552 -0.4174310503 0.6546475206
N -1.2504387136 -0.4165986774 -0.1355082405
C -2.6189390541 -0.7236659694 0.1774019846
C -0.7403469295 0.4146606056 -1.0819277479
H 3.6165846506 1.1627619496 -0.1479036335
H 3.1833459268 -0.5130245316 -0.5623213184
H 2.7006148523 0.1716424622 1.0134552022
H 0.9154767555 -0.9279954382 -1.1353743972
H 0.0476951334 -1.1611854458 1.4201509947
H -0.3224197693 1.3170019699 0.8843583882
H -3.0738337570 0.1169390059 0.7078372941
H -2.6609738908 -1.6133405523 0.8037487956
H -3.1716707891 -0.9072899079 -0.7433566530
H -0.5839105959 1.6794617285 0.1473375583
H -1.1678657446 0.5819123360 -2.0617948107
