15
0 1
C 2.1396510768 -0.0679746011 -0.4825283732
C 0.6618337167 0.2705175809 -0.6178721516
C -0.1624708661 -0.2650643244 0.5546720429
C -1.6214765231 0.0692386320 0.4372131441
O -1.8391692963 1.3962651303 0.5241368233
N -2.6025202472 -0.7075942260 0.2640850785
H 2.7105530064 0.3160493448 -1.3292138650
H 2.2970605096 -1.1484893697 -0.4378610807
H 2.5611188212 0.3658173700 0.4274321418
H 0.5292799559 1.3527177873 -0.6805957860
H 0.2681076859 -0.1457148647 -1.5498382212
H -0.0554773997 -1.3493938815 0.6267666475
H 0.2122048695 0.1638154680 1.4888278085
H -2.3031165191 -1.6743299437 0.2158699545
H -2.7903607906 1.5230428979 0.4225848366
