14
0 1
N -2.4324081526 -0.2023300096 0.0299579558
C -1.0465169952 -0.0052048256 -0.0405478029
C 0.0186089292 -0.8387181542 0.0513770277
C 1.2202791363 -0.0612086261 0.0402068686
N 2.4871864698 -0.6211319179 0.2486177619
C 1.0041727672 1.2874815959 -0.1630153101
N -0.5306699662 1.2904380317 -0.0761006054
H -2.8903853355 -0.1802158160 -0.8704684035
H -2.6733777175 -1.0585461397 0.5044542044
H -0.0458520530 -1.9133455283 0.1591037931
H 3.2162844411 0.0475795565 0.0503290278
H 2.6424617824 -1.4729421887 -0.2682945100
H 0.0475784951 1.6687339586 0.8299372480
H -1.0354178012 2.0584780636 -0.4927232554
