11
0 1
O -1.6935353275 -0.3971541828 -0.3250341147
C -0.9362312557 0.7544396244 0.0018238373
C 0.5542626488 0.4524191623 0.0217314734
C 1.0550790973 -0.8746244088 0.4084173851
O 0.9696013615 -0.4961513667 -0.9860310835
H -1.1971008352 -0.8163764985 -1.0593562965
H -1.1185929526 1.5818595319 -0.7120146403
H -1.2629493744 1.0926152017 0.9957510557
H 1.2178668304 1.3173798137 0.1328842520
H 0.3400063286 -1.6378391191 0.7238368415
H 2.0715934787 -0.9765677579 0.7979912899
