13
0 1
O 0.6207923629 -1.1671498005 1.2193369090
C 0.4779726788 -0.9144041362 -0.0296633720
C -0.9680674975 -0.6114002872 -0.3972386197
C -1.0334965362 0.7028170296 0.4026097732
C 0.3877750159 0.8675826594 0.8498447504
O 1.1377488185 1.5044863115 1.4370702001
C 1.4485411014 -0.3834234300 -0.8453307178
H -1.6471693715 -1.3649086196 -0.0055059002
H -1.1440127624 -0.4521779767 -1.4594786725
H -1.6560216505 0.6747881898 1.2989437979
H -1.3031430268 1.5798595614 -0.1887446846
H 2.4725574233 -0.3420383689 -0.4988728631
H 1.2313964440 -0.1341531326 -1.8752416009
