15
0 1
C 1.2245637219 -0.7724707606 -0.7471845424
C 0.8303467698 0.3007809286 0.1057030017
C -0.3169236598 1.2207130336 -0.2956141207
N -1.3569864643 0.8924989836 0.6605853925
C -1.0656198004 -0.4115789964 1.1956377524
C -0.9314520276 -1.4942996840 0.3681957675
N -0.5296863517 -2.2284449427 -0.4612338704
H 0.8576474725 -0.8090330887 -1.7605721431
H 1.8047381084 0.4852679235 -0.6982708814
H 2.0366319027 -1.4280401610 -0.4645816733
H 1.3140472598 0.4302644028 1.0642237350
H -0.5831919496 0.9932088344 -1.3374504575
H -0.0426613441 2.2804418778 -0.2508082131
H -2.2968124792 1.0286619946 0.3127182351
H -1.1611661586 -0.5547583456 2.2636240175
