17
0 1
C 1.9410477491 0.5613360798 -0.2491323233
C 0.8203033873 -0.4581233299 -0.2679353843
C 0.0370453742 -0.7275170896 1.0472373218
C -1.2566635882 -0.2658949356 0.3702373766
O -2.3679839402 -1.0784224483 0.5012778294
C -1.3967920145 1.1193445314 -0.0110220589
C -0.4940156194 -0.0745628194 -0.9633691111
H 2.7526236332 0.2268582761 0.3998815764
H 1.5970282014 1.5275312894 0.1265879839
H 2.3501322851 0.7147845336 -1.2499865475
H 1.1866225637 -1.3952854743 -0.6914798667
H 0.3274124951 -0.1517151767 1.9272541724
H 0.0119613375 -1.7858518704 1.3025277212
H -3.1301169773 -0.5275564738 0.3008272536
H -0.7987536354 1.0511756392 -1.2765540848
H -0.5953702389 1.7415292227 0.3951938766
H -0.9030980129 -0.5789849543 -1.8322137354
