13
0 1
C -1.0705884840 -0.4948135183 1.1571541727
C -0.3650154850 -0.5802718110 -0.1790092146
N -0.9211807965 0.2093178111 -1.1722418712
C 1.0832231301 -0.1395981602 -0.2427124262
C 1.3124660887 1.2341023198 -0.3658803358
O 0.5227427584 2.0527163403 -0.8248822088
H -1.0850487536 0.5439679922 1.4886299153
H -0.5620084698 -1.0993778137 1.9090428137
H -2.1012303274 -0.8394114386 1.0577498471
H -0.2705157378 -1.6239461599 -0.5351150027
H -0.4993604209 -0.0534798692 -2.0637658648
H 1.8841941514 -0.8651973753 -0.1813271715
H 2.2514753463 1.5837156830 0.1016913469
