13
0 1
O 1.3806423318 1.9201989657 -0.8930383478
C 1.5966389964 0.9299778468 -0.2534367703
C 0.8521267725 -0.3664063260 -0.4580130050
O 0.7182577211 -1.1495983985 0.7432850638
C -0.6368096882 -1.4267365469 0.4806793407
C -1.3253726375 0.3035100215 0.5035725823
C -0.6540720487 -0.3691526836 -0.6322441829
H 2.3791339235 0.8971333640 0.5319002393
H 1.3733102539 -0.9454052332 -1.2287786216
H -1.3911317206 -0.7826031854 1.2985397128
H -2.3913436385 0.4603399286 0.3850115561
H -0.7828779223 1.0383508445 1.0860005315
H -1.1550343435 -0.4625265974 -1.5846520990
