12
0 1
C -1.7157730645 -0.0428377376 0.2019498753
C -0.3013980254 -0.1881407738 -0.3688435111
C 0.6801699149 0.8589742296 -0.0235108492
C 2.3660491503 -0.4941207149 -0.2504124039
O 3.1545159947 -1.2037267155 0.2256190109
O 0.4723677007 -1.1216267918 0.3362461081
H -1.6756837117 0.1874650870 1.2743849005
H -2.2290773286 -1.0071400936 0.0815449835
H -2.2957101149 0.7323556966 -0.3189404440
H -0.3566016553 -0.3776585122 -1.4561380998
H 1.1727359192 1.5170312979 -0.7322834261
H 0.7192192206 1.1299970282 1.0290508556
