18
0 1
C -2.2337518928 -0.0041633209 -1.0357651286
C -1.7927180537 -0.1954189010 0.2744871989
N 0.1042380122 -0.3837927232 0.4187263191
C 0.6335297767 -0.1443286464 1.7369067916
C 0.7997115907 -0.1616241747 -0.6461801148
O 0.2561233718 -0.3070951127 -1.8120329169
C 2.2312165437 0.2903698314 -0.6283501396
H -2.4861077931 0.9991295643 -1.3585541405
H -2.7652693064 -0.8143093920 -1.5226217085
H -0.8344281121 -0.2345858351 -1.6425362424
H -1.9854379217 -1.1419743917 0.7672608067
H -1.7836137299 0.6471028482 0.9605550007
H -0.1317547890 -0.4085744974 2.4700017850
H 1.5093107628 -0.7652347210 1.9411062364
H 0.9069538423 0.9029950147 1.9072578664
H 2.6187742970 0.2980243785 -1.6439816766
H 2.8418804520 -0.3674022139 -0.0088714959
H 2.2992859492 1.2973452929 -0.2100894408
