15
0 1
C -2.7507611876 0.3666152749 -0.3191141434
O -1.5456444376 0.3075337190 0.4386549862
C -0.5985340971 -0.5180189649 -0.0422870938
O -0.7436065857 -1.1700382557 -1.0460882911
C 0.6360658637 -0.4625596879 0.7644739016
C 2.2151163031 0.5401161638 -0.4701276429
O 3.3759914254 0.0526565863 -0.0366485926
H -3.2332046375 -0.6106507530 -0.3498998740
H -3.3861897194 1.0862395734 0.1908994319
H -2.5485158146 0.6914615375 -1.3399179842
H 0.4887688633 -0.1150107847 1.7851107904
H 1.2106856685 -1.3783577846 0.7046436859
H 1.8715023260 -0.0705925769 -1.3096994564
H 1.2847704139 0.6716918837 0.3394079500
H 3.7428166159 0.6500460691 0.6214313325
