8
0 1
N 1.6108682062 -0.2895050796 0.6497211794
C 2.0047699667 -0.4555881773 -0.4790073643
C 0.1900884513 -0.1623078358 0.2618301201
C -0.4853424932 1.0874565446 -0.0399012290
O -1.6784228811 1.1841577519 -0.1829814515
N -1.2647164104 -2.0872072638 0.5386135549
N -0.5682089673 -1.2270999495 0.4190047867
H 0.2046061276 1.9449770092 -0.1318955963
