14
0 1
C -1.7319106976 -1.0014309948 -0.1051463842
C -0.4233855961 -0.3622156833 -0.4390666739
C -0.1182020639 1.0164009096 0.1011131538
N 1.3049072677 0.8852976519 -0.3258650588
C 1.7256354812 -0.3704526335 0.3402615770
O 2.8358919741 -0.5786791796 0.7212403461
O 0.6656622594 -1.1128279909 0.3176491880
H -1.9373238969 -1.0530969001 0.9728916804
H -1.7793515440 -2.0137107089 -0.5076200144
H -2.5324120389 -0.4285993165 -0.5786463940
H 0.8923484769 0.4023878001 -1.2835627602
H -0.1684453768 1.1738800882 1.1873284461
H -0.6095188398 1.8162548393 -0.4489013521
H 1.9784385947 1.6419921185 -0.2808517539
