8
0 1
C -0.9849424228 -0.2269524781 0.0604052280
O 0.2738571995 -0.6782507808 0.5343953152
C 1.7078684259 0.3944133800 -0.0320101616
O 1.5458063373 1.5434541549 -0.1650465303
H -0.9015349351 0.7151791664 -0.5149473373
H -1.6489256854 -0.0320169160 0.9182540275
H -1.4620602412 -0.9879965318 -0.5802798967
H 1.4699323217 -0.7278309945 -0.2207706447
