19
0 1
C -2.0081414446 -1.1367142557 -0.7945456040
C -0.4808216709 0.4016730524 -0.1318811436
C -1.3622573564 1.1995051534 0.7731154963
C 0.3566101539 -0.5579352303 0.6046612283
O 1.2134568662 -1.4122824844 -0.1464508960
C 1.8268406900 -0.3743763737 0.5770962626
C 2.5264803697 0.7004460732 -0.2007453132
H -2.8900957320 -0.7821566660 -1.3261490744
H -1.5717036458 -2.0181282305 -1.2588716045
H -2.2295736687 -1.3124384932 0.2521888237
H -1.1960300008 -0.2750295257 -1.0507468492
H -1.7703098453 0.6746742800 1.6497776196
H -2.1746030060 1.6879674692 0.2351060154
H -0.7151292143 1.9997375529 1.1516680756
H -0.0427666218 -1.0469738538 1.5001963456
H 2.3486241009 -0.7173877217 1.4704327126
H 1.9270814155 1.0048414158 -1.0560259343
H 3.4924666922 0.3308224170 -0.5507157239
H 2.7080329182 1.5694034208 0.4357155633
