13
0 1
O 0.9181211989 2.0200585995 -0.0869519915
C 1.3909327757 0.8389913012 0.0922326767
C 0.8221799271 -0.4564257822 -0.4051979967
O 0.6242321644 -1.3339358940 0.7086089578
C -0.8091676637 -1.1025008708 0.5824615190
C -1.1225515276 0.3162684008 0.5909810249
C -0.6497419949 -0.3428267132 -0.7059245678
H 2.4450282305 0.8516042509 0.3758787639
H 1.5227327423 -0.9074275997 -1.1212026252
H -1.4480993690 -1.9283299157 0.8620887365
H -2.1795079136 0.5608594233 0.6727206138
H -0.0634017408 1.8593660292 -0.1198668077
H -1.1416068291 -0.4451492292 -1.6613983036
