11
0 1
O -2.5029496954 -0.5169293330 0.5611517811
C -1.4071059632 -0.3411423295 0.2395239944
C -0.4701923426 -0.1435500550 -0.9466593597
C -0.0095652598 1.2114112677 -0.6316725368
N 0.9865412811 1.1958999964 0.2030226158
C 1.1495597975 -0.1544994189 0.4924593428
N 0.6592635905 -0.8894926849 -0.5802859046
H -0.1558302325 -0.2946547201 1.1503433939
H -0.5008785624 2.1280892573 -0.9326028517
H 2.0227206603 -0.4735931222 1.0511851318
H 0.5455477265 -1.8852988579 -0.4703226068
