13
0 1
O 2.9719468715 0.1653382222 -0.8195845675
C 1.8514512240 0.4688099841 -0.6826627331
N 0.6602577717 0.0522977794 -0.2950741556
C -0.2334707853 1.1615849745 -0.4831470009
C -1.4009308778 -0.5542638123 0.3217110540
C -0.0914858109 -1.1782508656 0.2505455500
H 0.8630795656 1.7742851684 -0.9091470096
H -0.5101652077 1.7546820844 0.3786867478
H -0.8599905498 1.1737241160 -1.3655648764
H -1.7839689092 -0.2423215028 1.2839692372
H -2.1441125394 -0.8002420531 -0.4244675048
H 0.0191156200 -1.9861034517 -0.4715657619
H 0.3633566271 -1.4574906438 1.1998980208
