11
0 1
O 2.4867500337 -1.3231893947 -0.0176613649
C 1.5942961867 -0.5911356931 -0.0170337844
C 1.0948037093 0.6706361446 -0.0326778465
C -0.2216249189 1.2127903818 -0.0022938027
N -1.3522781480 0.6093214807 0.0577119510
C -1.1991772707 -1.4512146149 0.0579748257
N -0.0842103169 -1.7772704500 0.0192192864
H 1.9029049185 1.3909224051 -0.0768453585
H -0.2123755196 2.3044873258 -0.0353704429
H -2.1397358800 1.2459140616 0.0633670562
H -2.2570057940 -1.6130996468 0.0965354805
