17
0 1
C -2.0735759631 -0.5523427729 0.1613753235
C -0.8775459563 0.0233392505 -0.5583904717
O -0.5067623356 1.2686107965 0.0444561006
C 0.8414659946 1.4910510104 -0.2985448378
C 1.4430914481 0.0938547378 -0.3701731341
C 1.2356019134 -0.6966205937 0.9094044555
C 0.3505236167 -0.8492543516 -0.7189462167
H -2.9014454337 0.1567414097 0.1528851048
H -1.8272564239 -0.7727428459 1.2022911207
H -2.3940877660 -1.4732738992 -0.3255460581
H -1.1417826788 0.2091213082 -1.6147493812
H 0.9281285888 1.9842818010 -1.2768397065
H 1.2893296654 2.1366078692 0.4592866718
H 2.4151504091 -0.0057813809 -0.8408970582
H 0.8117109404 -0.1315210009 1.7318938845
H 2.0544765719 -1.3616403707 1.1599880670
H 0.4420504088 -1.5148219677 0.5626241356
