17
0 1
C -1.1196594713 -1.0326998907 0.7067405371
C -0.7592611947 0.1157076860 -0.1991866963
C 0.7047726102 0.2526081251 -0.5893931834
C 1.6097065085 -0.0138046382 0.5988964250
O 1.6359267510 0.8285296972 1.6115166942
C -1.7548928405 0.6669793977 -1.1170941734
O -1.4244244410 1.3339776865 0.0889813805
H -0.7871150926 -1.9841248775 0.2843421004
H -0.6521570041 -0.9018688557 1.6849331540
H -2.1985343855 -1.0753074804 0.8510906261
H 0.8689813396 1.2673556686 -0.9520835207
H 0.9366746255 -0.4598460548 -1.3877224160
H 2.8791411291 0.0870724317 -0.0543845655
H 1.7234708109 -1.0907306850 0.8192825543
H 2.7170729961 0.6270165406 0.7387761026
H -2.7486639760 0.2282761339 -1.1535216779
H -1.4323403649 1.1654261153 -2.0282023409
