8
0 1
O -2.5597184178 -0.6164995259 0.3994893383
C -1.5054714085 -0.1192513264 0.0527797566
C -1.0258325968 1.0374912990 -0.7086425297
C 0.0630664004 0.3830688401 -0.3244210349
C 1.5039485136 0.0898605943 -0.2186529795
O 1.9895809800 -0.8603158421 0.3625513533
H -0.5359937333 -0.8144346217 0.4744742965
H 2.0924722625 0.8693365827 -0.7555372006
