19
0 1
C 2.5179372951 -0.2023825004 0.0421245374
C 1.0639928080 -0.4961224530 0.3071688846
O 0.8044207624 -1.0132577052 1.6273545169
C 0.1809907076 0.6668626174 0.5999448418
C -1.1208218250 1.3319713717 -1.2066640544
C -1.2197078214 0.5475327083 0.1270398975
C -1.8530892327 -0.8266779035 -0.0897514233
H 2.6317233598 0.2228899111 -0.9579981444
H 3.1152141105 -1.1146818159 0.0998121370
H 2.8925967984 0.5297075490 0.7600339367
H 0.6924965662 -1.2672038455 -0.3740614007
H 1.1524171421 -0.3632545069 2.2514972940
H -0.7292773389 2.3385311408 -1.0613119957
H -0.4835962061 0.8100988923 -1.9252746839
H -2.1194183072 1.4053546806 -1.6393447574
H -1.8634145605 1.1371302788 0.7860300274
H -1.3807857347 -1.3765970356 -0.9062707358
H -2.9086199360 -0.7100858087 -0.3449820571
H -1.7867675871 -1.4350785750 0.8129021795
