13
0 1
O 2.1512176215 -1.0013061697 0.1627857940
C 1.4218328357 0.1779133330 0.3551131017
C -0.0720047388 0.0346043481 0.1884392186
C -0.6482025610 -1.0703084668 -0.3673042295
C -2.0325972997 -1.0505021385 -0.6456995308
C -0.8138144094 1.1775283550 0.5969750579
C -1.3267371637 2.1841602727 0.9999098057
H 1.9680902426 -1.6055430479 0.8851315990
H 1.6034553932 0.6195236928 1.3435224379
H 1.7848746229 0.9025367688 -0.3788730000
H 0.0302876102 -1.8707676023 -0.6635844729
H -2.2248524429 -1.7303088886 -1.4947099745
H -1.8249707105 3.0589275436 1.3465701930
