14
0 1
C -0.9648198614 -1.2166047602 0.0668368839
C -0.2131827975 0.1228702994 0.1379933593
N -0.8850387182 1.3095878296 0.0751633384
O -1.5963422872 1.4502885533 1.2714594605
C 0.8853812985 0.3001105653 -0.8652522310
C 2.1025061350 0.0227864684 -0.2314167053
O 1.7768474304 -0.9602091793 -1.0196806845
H -1.4210347814 -1.3359071946 -0.9167912177
H -0.3044034926 -2.0604640903 0.2672002851
H -1.7492395957 -1.1936791944 0.8219607019
H -1.9636413625 2.3334697241 1.2020837498
H 0.7396383021 0.8186302856 -1.8045199071
H 3.0648777834 0.3242429600 0.1574545699
H 0.4238669471 0.0408087333 1.1029933966
