15
0 1
C -1.3262872332 -0.5868178653 -0.6363006986
O -0.8575600781 -1.8328184316 -0.1627990540
C 0.1425881946 -1.4095025749 0.7400089026
C 1.3430670863 -0.8484119737 0.0771117827
C 1.4794294507 0.4453262849 -0.1931031017
C 0.2888445851 1.3118998565 0.1132372163
C -0.8275740854 0.3614268118 0.4736249349
H -0.8961765114 -0.3178782218 -1.6087484226
H -2.4131615076 -0.6253332597 -0.7312545105
H -0.4246427567 -0.4448119602 1.3838462452
H 2.1396382955 -1.5640377982 -0.1002781207
H 2.3950032294 0.8737301308 -0.5838463764
H 0.4887349168 2.0038907236 0.9369642529
H 0.0127518288 1.9305984422 -0.7503663843
H -1.6170904151 0.7957588358 1.0898413339
