15
0 1
C -0.8569161089 -1.5494968355 0.0935309197
N -0.4024619066 0.0823809027 0.8971537221
C 0.7303813410 -0.7744482832 0.8668941621
C 1.6550823264 -0.3021975504 -0.0580692592
C 1.0678400480 0.8140550488 -0.6552594289
C -0.1833962862 0.9910324486 -0.0661860268
N -1.2067837568 1.8751700915 -0.4283766600
H -1.9028506904 -1.3375001739 0.2907275684
H -0.6038146480 -1.4229057837 -0.9534901039
H -0.6115321621 -2.5427898265 0.4629984379
H 0.9119905798 -1.4275835740 1.7062974459
H 2.6242491492 -0.7254528183 -0.2717200219
H 1.4954729532 1.4271014528 -1.4365726653
H -1.7693947474 2.1455751247 0.3637919165
H -0.8746590912 2.6877627765 -0.9222180066
