13
0 1
N -1.8797331385 0.7265421155 -0.3790524627
C -0.5485243487 0.3736210318 -0.3536062097
C -0.1121075189 -1.0049574836 -0.0194387523
N 1.0325119375 -1.2596617017 -0.6403850844
C 1.7261062109 0.0289519728 -0.2939863018
O 1.1412591721 -0.3642770226 1.3850510873
C 0.6075109316 1.0003390849 -0.6020439870
H -2.4975964067 0.2037735133 0.2174364242
H -2.0714345354 1.7135138264 -0.3763412677
H -0.7411633281 -1.7731063802 0.4249980258
H 1.5270769556 -2.0915853037 -0.3491678597
H 1.0188718423 0.4471186689 1.8915344826
H 0.7746262264 2.0305276782 -0.8777450945
