15
0 1
O 2.1684827999 0.8932385101 -0.1765923040
C 0.9405551117 0.2843563240 -0.3690688850
C 0.6182550617 -1.1314126192 0.0698562922
C -0.8682904833 -0.9029432268 -0.2481857449
C -1.2568839810 0.1869097421 0.7752768765
C -0.3592732843 1.0574083132 -0.0923956008
C -0.7514242487 0.2512865328 -1.3126687028
H 2.0857060756 1.5391543585 0.5273575139
H 0.8288034468 -1.3661117073 1.1167824466
H 1.0861851924 -1.8774316844 -0.5727962835
H -1.4877900589 -1.7734388703 -0.4482235499
H -2.2992383423 0.4917710075 0.6815022941
H -1.0159414404 0.0163802480 1.8277938819
H -0.2945328919 2.1429902240 -0.0871693232
H 0.8423920428 0.1354108477 -1.5331459112
