16
0 1
C 1.2101305812 0.7909980880 0.3338743559
C 0.7478025936 -0.6263524921 0.5763004795
C -0.3396480794 -0.9288380974 -0.4524517417
O -1.0276637606 -2.1370036437 -0.2166749506
C -1.3379042145 0.2072015844 -0.3621197707
C -0.6135433339 1.5066132649 -0.1703366896
N -0.7095265250 2.7154721675 -0.1563634094
H 0.4109500381 2.0844435243 0.2649813498
H 1.7097717196 1.2394666304 1.1977084281
H 1.8442692771 0.8892210302 -0.5488154693
H 0.3103052023 -0.7300485140 1.5736130301
H 1.5609027607 -1.3558385672 0.4975453552
H 0.1101846481 -0.9373982471 -1.4554827477
H -0.4049523252 -2.8640501625 -0.2775633047
H -1.9872086749 0.0393537446 0.5014876770
H -1.9675779072 0.3027816897 -1.2464705918
