10
0 1
C 2.0028112807 0.4654268637 0.7243943211
C 0.9644885448 0.5476012083 0.1245905878
C -0.0674892621 -0.3630532969 -1.1172139163
C -0.4184826549 0.8483048288 -0.4164098919
O -1.4447302779 0.6223225960 0.5231914248
N -1.6720449123 -0.7097663227 0.5339229082
C -0.8889703755 -1.2782547567 -0.3230192894
H 2.9342118793 0.3793536290 1.2346623758
H -0.4747562305 1.8408340854 -0.8490659786
H -0.9465389915 -2.3513498349 -0.4352295413
