15
0 1
C 2.5370359610 -0.2297436825 0.0898036094
C 1.2565564357 0.2789536300 0.6230089732
O 0.3933597284 0.8053192605 -0.2376898230
C -0.8050428313 0.3960418804 0.2041631653
C -2.0617384401 0.9556177108 -0.3930402846
O -2.5461181500 -0.3859114452 -0.6109904069
C -1.3531217068 -0.9770986778 -0.0617952445
H 3.3255158382 -0.1706037704 0.8402532139
H 2.4728237704 -1.2690652036 -0.2501483799
H 2.8172773736 0.3699507426 -0.7819307697
H 1.0133586786 0.3677078707 1.6688510476
H -2.7436894042 1.5172513329 0.2524475329
H -1.9018543592 1.5146029403 -1.3257015032
H -0.7654625196 -1.5528753211 -0.7939938583
H -1.6017403746 -1.6215862673 0.7856897275
