14
0 1
C -2.0331019198 0.5447320397 0.3903535902
N -0.9266280442 -0.4189212510 0.3565677832
C 0.0502832147 -0.0715282759 -0.6728100722
O -0.2735462475 0.1922974747 -1.8343384350
N 1.2408117798 -1.0939083167 -0.4057756664
C 2.1756342782 -0.1665104559 -0.1178907344
H -1.7142770489 1.5806701108 0.6080586708
H -2.7437622894 0.2179516038 1.1610793796
H -2.5287439223 0.5321556028 -0.5854127133
H -0.4754607032 -0.4439125699 1.2750768366
H 1.0578459104 -1.8134973963 0.2906313129
H 0.7397052902 0.9265271949 -0.0795946891
H 2.8853524044 -0.2973789249 0.7069281195
H 2.4737782975 0.5006891638 -0.9250573823
