14
0 1
O 1.1950891471 0.7469591659 1.4251773725
C 0.6443385346 0.1478881937 0.3096056205
C 0.4206998274 1.0227448884 -1.3345635110
C -0.6104600760 0.7810276871 -0.3163018354
C -1.3041382394 -0.5863756952 -0.3880213190
C -0.0905967035 -1.2080963987 0.3432061808
H 2.1179304876 0.4970272979 1.5023856156
H 0.9130208442 1.9648793180 -1.0387754531
H 1.3727392261 0.1103043501 -0.6134774429
H -1.0536391534 1.6018508801 0.2390473194
H -2.2387566069 -0.6605910230 0.1661216546
H -1.4508304878 -0.9325289588 -1.4098537666
H -0.3155273970 -1.4630176787 1.3783602355
H 0.4193745972 -2.0437340267 -0.1354106708
