7
0 1
O -0.9076721947 0.9050285975 -0.3642839233
C -0.0542751168 -0.1553095891 -0.3012472422
C 1.3658276796 0.1063666385 -0.7342148951
N 1.4629789247 -0.0180897548 0.5462565746
H -1.6679177909 0.7429956972 0.2282878434
H -0.4336188242 -1.1739232280 -0.3994959011
H 0.3982253223 -0.3282063613 1.0603415438
