14
0 1
C 1.6484804983 -0.4038364021 -1.0492492146
O 0.3474745752 0.1343090255 -0.9683825949
C -0.4885777665 -0.5585926756 -0.0996058147
C -0.4156814680 -0.2998746714 1.3742081192
C -1.5775350900 0.2142133081 0.5806844429
O -1.2454392467 1.8822690333 0.2195034054
H 1.6265012103 -1.4287060372 -1.4364807976
H 2.1363906729 -0.4058629905 -0.0689995369
H 2.2162171988 0.2241087661 -1.7342092004
H -0.7626875217 -1.5535781898 -0.4474241172
H 0.3024062270 0.4402898657 1.7060115772
H -0.6048817442 -1.1031179122 2.0765162506
H -2.2114359330 1.3756367233 0.2266084306
H -0.8410276125 1.8058691569 -0.6590789494
