10
0 1
C -2.1061896545 -0.1211807824 -0.2542185013
C 0.3107089740 0.4868595997 -0.1265224512
N -0.7846554047 0.3315751233 -0.6042050394
O 2.5081798770 -1.2627604580 0.2614556223
C 2.5401666959 -0.0519950133 0.3880761973
N 1.4544738686 0.8340499681 0.2472800052
H -2.4309516513 -0.8802722916 -0.9772509607
H -2.1364720470 -0.5497862135 0.7567055341
H -2.8053130622 0.7240266778 -0.3087857015
H 3.4568044042 0.5073183898 0.6513642953
