15
0 1
C -1.8966955313 0.6378668867 0.6607913930
N -0.5289683383 0.1645329633 0.7499408685
C 0.2371541501 0.0970610265 -0.3230497273
C 1.6796491760 -0.3139458439 -0.1762764306
O 2.4249386456 0.8330253376 0.1758898098
C -0.8302491120 -1.2565424592 -1.6620659353
N -0.0980633259 -2.0402746123 -1.1910744388
H -2.4944983632 -0.0731573828 0.0819551439
H -2.3075200036 0.7538205668 1.6613487724
H -1.9156941488 1.6023323860 0.1558318583
H -0.3484800154 -0.5318318741 1.4582959870
H 0.0311970803 0.8231580622 -1.0980756174
H 2.0559503138 -0.6697786786 -1.1296103782
H 1.7801612560 -1.1234273476 0.5524049852
H 2.2194372165 1.0804319696 1.0796007097
