16
0 1
C 1.9668690632 0.3848081101 0.0727412190
N 0.9626952175 -0.5678465149 -0.3342856785
C -0.0535337839 -1.0264867586 0.6548054880
C -0.7735299018 0.2067128365 1.2612574354
C -1.2176919258 0.8155888381 -0.1021737102
C -0.0819215787 -0.2458593251 -1.2102385950
C -1.0459866963 -0.9240465713 -0.4257586759
H 1.5359839781 1.0800470908 0.8100481714
H 2.3319320929 0.9338217866 -0.7965003643
H 2.8085174295 -0.1383860069 0.5276088040
H 0.1605713968 -1.8896934844 1.2718425641
H -1.6388046187 -0.1300342817 1.8387697742
H -0.6934009576 1.7321869191 -0.3920230498
H -2.2661180424 0.9353039626 -0.3914154986
H -0.0424120874 0.1841668592 -2.1977775464
H -2.0058325856 -1.3779014599 -0.6050483374
