14
0 1
O -1.5210519446 0.5504107037 -1.4240935499
C -1.1854742239 -0.7754993749 0.2685109782
C 0.2126224931 -0.8777341779 0.7007965570
C 0.8203978895 -0.1882845975 -0.5329604797
C 1.2962923389 0.8532090993 0.4701848493
O 0.6038913644 0.1986738176 1.5815828473
H -1.6818540713 1.4429786477 -1.0480788316
H -1.8866398719 -0.1331981675 0.7959390185
H -1.6068684828 -1.5613123468 -0.3557091648
H 0.5330644919 -1.8801735821 1.0378448742
H 1.4760388755 -0.7645665623 -1.1887206409
H -0.4181071797 0.3719593408 -1.2932905131
H 0.9406842364 1.8903722639 0.3388653899
H 2.3897190845 0.8694559361 0.6303316656
