15
0 1
O 2.0639594020 0.9112173285 -0.5220399990
C 0.8701965672 0.2735280684 -0.2541317056
C 0.7369740202 -1.1912434402 0.2091968376
C -0.6115995781 -1.0917069670 -0.4739743109
C -1.4182842823 0.3989105563 0.7961822403
C -0.2162639737 1.0477317481 0.4087258981
C -0.1863920190 0.0050814252 -1.2631681494
H 2.4343428933 1.2243744637 0.3071285508
H 0.7762763217 -1.4143214461 1.2764775020
H 1.4475373543 -1.7946728794 -0.3570710519
H -1.3716580983 -1.8398318631 -0.6397093178
H -2.2451494964 0.2473899459 0.1250486979
H -1.7800877561 0.6221050779 1.8081602113
H 0.0248618249 2.0695776461 0.7171164553
H -0.5790841799 0.5734453355 -2.0921438588
