15
0 1
O -1.4241162177 1.6461541115 -0.0450172644
C -1.6391265957 0.3033418457 -0.4164806273
C -0.8143289308 -0.6636137293 0.4344851741
C 0.6446881063 -0.4189519364 0.3370394337
O 1.2078645576 -0.2294090212 -0.8135616436
C 1.6210956919 -0.3074701480 1.3924021407
O 2.8227702877 -0.1737070069 0.9734889043
H -0.6638426970 1.9845330672 -0.5217351581
H -1.4193001630 0.1438056229 -1.4760240486
H -2.6984493011 0.0955746027 -0.2590863213
H -0.9957797573 -1.6894058403 0.0972137951
H -1.1127730022 -0.5991360347 1.4829938955
H 0.9028855033 0.7386884803 1.3293529611
H 1.3615582395 -0.6625480639 2.3961137008
H 2.2000422780 -0.1789749496 -0.4820959421
