15
0 1
O 0.0529024921 -1.8362755628 0.1209996374
C 1.0647807361 -0.9784305734 0.0999850969
C -1.1279777245 -1.0910709685 -0.2820287023
C -1.1475584764 0.2973967882 0.3590351607
C -0.0205523072 1.2125544502 -0.1794757647
C 1.2211465993 0.3644348278 -0.4613974314
C 2.0260225818 -0.3239026499 0.6537870558
H -1.1382083770 -1.0230247516 -1.3748738393
H -1.9697566976 -1.6996180328 0.0433479885
H -2.1271923437 0.7501069042 0.1876253693
H -1.0508559010 0.1669626931 1.4407597573
H -0.3493318903 1.6690618219 -1.1171480988
H 0.1674828870 2.0302105505 0.5218103475
H 1.6928731860 0.5150698893 -1.4321510616
H 2.7144102352 -0.1773843862 1.4658974846
