17
0 1
C 2.1166853383 -0.5316744801 -0.1766861247
C 1.4059878020 0.3540339801 0.7792017975
C -0.2051177712 1.2232590141 -0.2424928234
C -1.6627364859 1.1822651968 -0.5818522261
C -2.0859108976 0.0149807326 -0.1323157860
C -0.8872503259 -0.4832435534 0.5769844118
O -0.5098103893 -1.7706625257 0.3332852298
H 2.3660923401 -0.0417606531 -1.1222735267
H 3.0661034130 -0.7079607773 0.3512392458
H 1.6889762485 -1.5235392394 -0.3712682702
H 1.0904742861 -0.2405665544 1.6436611780
H 0.4030959307 1.0754355453 -1.1316123404
H 0.0832807429 2.1478744032 0.2462674119
H -2.2154616388 1.9872917298 -1.0553464824
H -3.0483277189 -0.4814800886 -0.1749490690
H -0.8800143106 -0.2996682324 1.6454540152
H -0.7248605634 -1.9928574973 -0.5770326413
