12
0 1
C -1.5727424506 -0.2665916013 -0.4941432162
C -0.8631691181 -1.4854285946 0.0403209322
C 1.8175560652 1.2864179729 0.9118326895
C 1.7074728370 0.9010740968 -0.3464202548
O 1.5968762196 0.5729126882 -1.4747010699
O 0.1238581952 -1.4668240069 0.7560799655
H -1.1998870313 0.6468723129 -0.0185600774
H -2.6589135267 -0.3653883893 -0.3480480292
H -1.3995055118 -0.2048550587 -1.5806302450
H -1.3061986876 -2.4598578284 -0.2840337714
H 2.3245669494 2.2155225974 1.1569095592
H 1.4335390596 0.6272838111 1.6846105175
