12
0 1
O -2.1939747374 0.7472365352 -1.0893869385
C -1.8168877690 0.0958523899 0.0364769311
C -0.0937009254 -0.1253751902 0.0445783517
N 0.7064180719 0.8113606599 0.3784801750
N 2.0194112067 0.3207717436 0.1145669002
C 2.2849456155 -0.8427562304 -0.3468315580
N -0.4237093923 -1.2289596152 -0.3598643367
H -2.3818678590 0.1099003934 -1.7838247463
H -2.3958053502 -0.7813363344 0.3086119548
H -1.7518500278 0.7870609155 0.8792031457
H 2.6801280337 1.0479679532 0.3586979786
H 3.3739351333 -0.9424352206 -0.4380458576
