15
0 1
C -1.8246351475 0.0001710141 1.0986879279
C -1.2715511490 0.0466348448 -0.1309645330
O 0.0876652215 1.5824834213 -0.5146406428
C 1.0561364189 0.7843625882 -0.8867165922
C 1.6168196869 -0.0606973078 0.2872040705
O 0.7385609464 -1.2294148997 0.3736198461
C -0.3530286972 -1.0685510130 -0.3165431056
H -1.3037463365 -0.4513551260 1.9332668031
H -2.8032950559 0.4218334407 1.2864968488
H -1.8526297676 0.3621771265 -0.9877983880
H 1.8348693185 1.2296442891 -1.5285463894
H 0.6354768823 -0.1042250897 -1.5519496618
H 2.6107619029 -0.4857157816 0.1405369385
H 1.5685821968 0.5024350445 1.2166786629
H -0.7338764204 -1.9820865516 -0.7700687847
