13
0 1
O 1.9876916087 -1.0577182596 -0.0133277587
C 1.4042039158 0.1030484308 0.5039790426
C -0.0966281148 0.1639107637 0.2991695612
C -0.7904402924 -0.9402928556 -0.1939797021
C -1.6400456081 -1.8930872697 -0.3060114557
C -0.7534729823 1.3863920610 0.5704687624
C -1.2880444229 2.4327692790 0.8207297984
H 1.5724719444 -1.8249037878 0.3915807029
H 1.5813383431 0.2056000330 1.5846828982
H 1.8929257417 0.9493073678 0.0176110442
H -0.0832907262 -0.7094697446 -1.0963663889
H -1.9985944188 -2.3188812145 -1.2352218837
H -1.7737919881 3.3534691965 1.0439603792
