13
0 1
O -2.3105167995 -0.1925683917 0.1094363015
C -1.0267399656 -0.0935649349 0.5391761256
C 0.1618376640 -0.6601796261 -0.5708500819
O -0.2974118618 -0.1596505504 -1.7294789046
C -0.2183108082 0.9666818109 0.0155521907
C 1.1420928968 0.3614974512 0.0345991103
O 1.6386727380 0.1166185139 1.3161312802
H -2.2333064716 -0.1625780508 -0.8630854785
H -0.8244100021 -0.4803089207 1.5304064677
H 0.3662206204 -1.7361719608 -0.4152684355
H -0.5507096618 1.8352834604 -0.5417040964
H 1.8507603430 0.7855405750 -0.6736340824
H 2.2999853082 -0.5761233760 1.2534336031
