17
0 1
C 2.1403175093 0.2182657873 0.0533152660
C 0.2274002642 0.1956500606 0.0514739387
C -0.4797622415 -0.7469523739 0.9945965555
C -1.5627013744 -0.4011379471 -0.0978017356
C -0.3945030307 -0.4560765153 -1.1572311642
C -1.6820445644 1.1139704498 0.1049602250
C -0.4293186866 1.6029697160 0.2200735694
H 2.4182592436 0.2316104528 -0.9943441636
H 2.7659411716 0.9049001680 0.6346560939
H 2.2004455507 -0.7654841539 0.4989018224
H -0.6705106682 -0.3918079366 2.0031141555
H -0.1399525554 -1.7854900453 0.9589269503
H -2.4234936303 -1.0547867482 -0.2212554035
H -0.5088628629 0.1576004790 -2.0461713335
H -0.0481392724 -1.4701388590 -1.3721746036
H -2.6200002412 1.6541385956 0.1434821103
H 1.2312533886 1.0217758703 0.2276307169
