15
0 1
O 2.4853526658 0.8064683518 0.7671615684
C 1.6507798075 0.1790766068 -0.1763672585
C 0.4382782487 -0.4175947203 0.5016148456
O -0.3386620176 0.5839671146 1.1881478172
C -1.5006174347 0.2099166349 0.4436451507
C -1.5691517221 0.6850038935 -0.9303554324
C -0.7558894004 -0.8450372017 -0.3551036062
H 1.9687327711 1.5001746463 1.1867022350
H 1.3251364239 0.8815808594 -0.9520188568
H 2.2349586671 -0.6159807611 -0.6463542503
H 0.7304756588 -1.2059320702 1.2013039649
H -2.3799114100 -0.0141107921 1.0365022943
H -0.6365126111 -0.2327899339 -1.4036656162
H -2.4829418971 0.2426534265 -1.3551029175
H -1.1288937500 -1.8494750545 -0.4938479383
