14
0 1
C -2.5275909393 0.8398542626 0.3100951377
N -1.3141859994 -0.5278525883 0.2950706858
C -0.1312730984 -0.3632873083 -0.4898943768
O -0.1769661678 -0.2115098347 -1.7008287954
N 1.0197967462 -0.4065999719 0.2622995761
C 2.3123162664 -0.1170781505 -0.3484201539
H -2.3478947124 1.2326742114 1.3262050636
H -2.3285149033 -0.5900992516 -0.1325001007
H -2.0098043970 1.4992866852 -0.4058129127
H -1.2395542030 -0.9371932275 1.2250970052
H 0.9393480089 -0.2538422276 1.2622117445
H 2.5646253752 0.9534684386 -0.2942195260
H 3.0959927908 -0.7005927635 0.1507222723
H 2.2552592329 -0.4065012740 -1.4015026199
