13
0 1
O -2.7646334427 -0.5609787332 0.0950625828
C -1.6086603679 -0.2938827860 -0.0091868251
C -0.7993939125 0.9934385667 0.1458150077
C 0.4598891332 0.1303110230 0.0199864061
C 1.6975294760 0.2286824196 0.8060714358
O 1.4876993772 0.4824186147 -0.9148043229
C -0.3572998752 -1.1263028322 -0.2994686740
H -0.9290337487 1.5340438904 1.0828504896
H -0.9397770726 1.6766835533 -0.6947217937
H 2.0687574574 1.1095570191 -0.2176874831
H 2.1907806454 -0.7479753409 0.8609314342
H -0.2937415119 -1.4304782207 -1.3462095814
H -0.2086121578 -1.9955451738 0.3407903241
