11
0 1
N -1.7932741490 -0.1719819508 0.3801837057
C -0.4294305579 -0.1402923557 -0.0137116649
C 0.6018473568 -1.1668535038 0.2338729946
C 1.7683659440 -0.3210576021 0.1451882204
N 1.5394287596 1.0005149382 -0.0063402079
N 0.2245600253 1.1361880614 -0.0500346054
H -2.0125273999 -1.1169462830 0.6952179991
H -2.4284088435 0.0718095910 -0.3809568370
H -0.1841087430 -0.6372950445 -1.0526819326
H 2.8017958095 -0.6477740965 0.2212847128
H -0.1765242019 2.0592422458 -0.1898893849
