19
0 1
C 2.3902296618 -0.8413559797 0.3004594192
C 1.2562650838 1.1979463711 -0.4029074158
O 0.3811766537 1.1422149242 0.5487750579
C -0.1797666654 -0.0927486602 0.7395366163
C -1.5014198789 -0.2305128873 1.3787728571
C -1.3122076401 -0.5955301147 -0.0872524185
C -1.9537871857 0.2637632742 -1.1464744627
H 2.3840960124 -1.8421108861 0.7449228354
H 3.1007330510 -0.2362979704 0.8593520642
H 2.7206526798 -0.9448518303 -0.7305362311
H 1.0734553070 0.6638157637 -1.3265471011
H 1.9089699605 2.0603087392 -0.3755264591
H 1.1238562246 -0.6912576787 0.6123899542
H -2.0760403212 0.6680329680 1.5780251036
H -1.6387087730 -1.0214183334 2.1062936093
H -1.2863520100 -1.6568884147 -0.3174143156
H -1.4312964429 0.1808513219 -2.1033660900
H -2.9919875314 -0.0322193467 -1.3115379717
H -1.9490691861 1.3165717401 -0.8574630515
