8
0 1
O -0.8297176096 -0.6927452658 0.6149812632
C -0.8335566483 0.6012586628 0.9135911734
C 0.5450025706 1.2661598624 -1.3660295197
O 0.8785821177 2.3565881918 -1.5046479992
C 0.3977119695 -1.2763367710 0.1427044788
O 1.4281200003 -1.2017443907 0.7377585173
H -1.8837700408 0.7321187059 1.2960945423
H 0.1629596406 -1.8578159953 -0.7606414561
