11
0 1
N 1.3479010427 -0.6872782603 -0.5191262843
C 0.6150340450 0.3928006102 -0.7050555870
C 0.2361398511 1.2406376962 0.4218792972
N -0.6537100943 0.5825947283 1.0746544028
C -1.0953223194 -0.6037809807 0.5320397731
N -1.3886739185 -0.5277167069 -0.8481265754
N -0.4692096906 0.0256107718 -1.5076359709
H 2.0725495615 -0.5411691512 0.1779478361
H 0.3216264582 -1.2006921476 0.1233762933
H 0.5882189949 2.2214508182 0.7087379414
H -1.7748139305 -1.2024533780 1.1207188737
