10
0 1
N 1.9456101738 -0.0978626216 -1.5009119235
C 1.1355445818 -0.0819653275 -0.6680421832
C 0.6153295204 -0.3370682870 0.9578102807
N -0.3738275954 -1.3486176962 0.9475922547
C -1.0822659138 -0.8706095080 -0.0095292716
C -0.4481437766 0.4520459578 -0.2720231447
N -0.1130416043 0.8765083783 1.1081845774
H -1.9053360125 -1.3600371512 -0.5157680109
H -0.6767818122 1.2187968541 -1.0015493353
H 0.5173984388 1.6752694014 1.0514397562
