9
0 1
N -0.9228308765 -0.5078247684 -0.0959550753
C -0.7715656823 0.8388173268 0.2107850145
C 0.5654607156 1.1990057427 0.4044642104
C 1.1718876775 -0.0695756980 0.2039079968
N 0.2239086373 -1.1878294040 -0.1020186402
H -1.7527354290 -1.0003220917 -0.4268582529
H -1.6872618011 1.4281726557 0.2682811985
H 0.9617665609 -0.6130876753 -0.9717293328
H 2.1866501975 -0.4081550878 0.4164778811
