14
0 1
C 1.9282598543 -0.3624818257 0.2348591285
N 0.9394531438 0.5908563333 0.7387827430
C 0.3657961511 1.4872612883 -0.0329406408
C -1.6921509569 -1.1953543514 -0.9514534962
C -0.5958366768 2.3042344230 0.6200651446
N -1.4243135696 3.0610623262 0.9897198872
H 2.0793500068 -0.1497640179 -0.8264534962
H 1.5539116195 -1.3870642890 0.3648283363
H 2.8725379859 -0.2516114821 0.7854597134
H 0.7160471314 0.4771518159 1.7384298458
H -1.1182322552 -0.3620625598 -1.3742857912
H -2.4329949229 -1.5420161050 -1.6816600148
H -1.0145681950 -2.0223808486 -0.7024013747
H -2.2072123163 -0.8551107072 -0.0447249851
