18
0 1
C -2.5028086583 -0.1102517196 0.1940502089
C -1.2447041851 0.1612138211 -0.6388082307
C 0.0415453047 0.3400159723 0.1213854975
O 0.1638686407 -1.2647102905 1.3022321206
C 1.2959436797 0.0091321556 -0.4768062970
C 2.5825155843 0.6920893985 -0.0533702858
H -3.4011922878 -0.0630106240 -0.4369766529
H -2.4636812032 -1.1064807243 0.6540467720
H -2.6128094853 0.6239841450 1.0031687867
H -1.1088527865 -0.6263247636 -1.3976144544
H -1.3816948374 1.0978384111 -1.2101574487
H 0.0044651400 1.0073940485 0.9831921311
H -0.4636871216 -1.9486215030 0.9788177535
H 1.0516044407 -1.0557956183 0.3465327934
H 1.2349572612 -0.3058867253 -1.5253216192
H 3.4536093871 0.0892479093 -0.3471873058
H 2.7066466834 1.6922323315 -0.5004797198
H 2.6181784436 0.8051297757 1.0398919508
