12
0 1
N 1.8829926128 -0.1858921541 -0.0062055740
C 0.5982474929 -0.1403813874 -0.4265861388
N -0.0559347295 -1.3880639411 -0.7414641602
C -1.0152123032 -1.1537160778 0.0794882560
C -0.8687230373 0.2077355262 0.6235735513
C -0.7808290025 1.2686672684 -0.3961265403
N 0.1768611308 0.9983634779 -1.2076837631
H 2.3054185259 0.6931670722 0.2395290181
H 2.1399652675 -0.9772604173 0.5590720746
H -1.7913857114 -1.8819199168 0.3086746716
H -1.1758712772 0.4368826049 1.6391902438
H -1.4033539688 2.1571199448 -0.4856446390
