12
0 1
O 3.3334443761 0.4494356316 0.8127167093
C 2.1775318168 0.3634458481 0.8457688042
C 1.1087615614 -0.0669160142 -0.6612986373
O 0.9300758380 -0.3428644153 -1.7991729101
N -0.0807559805 0.0546919128 0.2975156861
C -1.2243269430 -0.8270106244 0.1705685128
C -1.3427794685 0.6046156716 -0.1562892170
H 0.7371699548 0.3219596087 1.1775564651
H -1.6329454316 -1.2087004493 1.0978314351
H -1.1595146954 -1.5265333288 -0.6575570099
H -1.3597758991 0.8793618283 -1.2069358116
H -1.8395271291 1.2793043309 0.5296279731
