14
0 1
C 2.3103060416 -0.3447052312 -0.6860321500
N 1.3131124541 0.6998494988 -0.5926741441
C 0.1103828582 0.3912024179 -0.4808796791
C -1.0660152860 1.3275477486 -0.4123356384
O -2.1345902616 0.5415311846 -0.4479431751
C -1.7643245238 -0.8256101676 -0.2492245125
O -0.3927146664 -0.8964230046 -0.4919386537
H 2.4756589646 -0.5952454288 -1.7374735747
H 3.2512018577 0.0303426211 -0.2852346424
H 2.0313458725 -1.2613486517 -0.1587960557
H -0.9966128037 2.0771107260 0.6867508039
H -0.8129372722 1.5202362367 1.3315476294
H -2.3127219657 -1.4441587707 -0.9585089347
H -1.9918802695 -1.1000701792 0.7877767274
