15
0 1
O 0.1742594394 -0.6582924167 -1.4229872825
C -0.1022989439 -0.8347009266 -0.1021683484
C 0.6418310023 -1.5760814487 0.7136365613
C 2.6962772469 1.3001222444 0.2042317551
O 3.1005638627 0.7594070247 -0.6947724938
C -1.3276220477 -0.0744586721 0.2994174130
C -1.1568701093 1.4362559209 0.1482642406
H 0.9799770308 -1.1299143305 -1.6484284676
H 0.3750190171 -1.6794102763 1.7549146530
H 1.5257493851 -2.0983726068 0.3649057753
H -0.3429993990 1.7986019927 0.7794296373
H -1.5710885444 -0.3287768744 1.3315953731
H -2.1590487936 -0.4148661330 -0.3251057253
H -0.9288784793 1.7008764252 -0.8846488291
H -2.0699516671 1.9575390771 0.4392567379
