14
0 1
C -2.1081271017 0.2936689601 -0.1536508684
C -0.7659896040 -0.4338563278 -0.0690561796
C 0.4300827202 0.4664949295 -0.3278708778
O 0.3631799588 1.6219265411 -0.6994460572
C 1.8302507523 -0.2037135069 -0.1232206217
O 2.9448625095 0.4425626861 -0.3941363801
H -2.1585866842 1.1062928989 0.5821647584
H -2.9358175140 -0.4016476413 0.0362831270
H -2.2450291274 0.7383047646 -1.1469826503
H -0.7206002861 -1.2586466597 -0.8025125386
H -0.6296302377 -0.9186871857 0.9126692971
H 1.7143499633 -0.2725988705 1.3995389829
H 1.7820010596 -1.3109890964 -0.2570908336
H 2.5368175915 0.1566565080 0.8880748420
