18
0 1
C -3.2628216277 0.3676621615 0.3644578659
C -0.3193168362 0.2674160186 -1.0453440300
C 0.4966670888 1.1122530621 -0.1499273243
C 1.4469085485 -0.0889538027 -0.6054196760
C 2.5600356314 -0.4409153261 0.3914080852
C 0.1609592060 -1.0324498244 -0.5328717914
H -2.6503568760 0.0058987494 1.1995646412
H -4.0691495490 -0.3487973978 0.1648493589
H -3.6926313625 1.3437677698 0.6206731610
H -2.6341966293 0.4687022402 -0.5320510200
H 0.4206199546 1.0164666813 0.9465778558
H 0.7000232352 2.1440269960 -0.4573124124
H 1.8632952498 0.0241437421 -1.6081457201
H 3.0420079118 -1.3818444180 0.0912688768
H 3.3182341169 0.3546418343 0.3968734457
H 2.1693326519 -0.5579831173 1.4089849475
H 0.0643870976 -1.9105211230 -1.1811586233
H 0.0594341884 -1.2963802459 0.5337813597
