10
0 1
H 1.2177430300 0.7881433110 -0.0789657260
H 1.9062262850 2.1132993830 -1.3254727830
S 1.8416587550 1.9773473110 0.0070044220
H -2.2355250800 0.1678664360 1.1598303820
H -2.4863665920 0.2739799320 -0.5999382510
H -1.3435607320 1.3656293320 0.2045120920
C -1.7515350430 0.3608965360 0.2015463520
N -0.6147675020 -0.5493655480 -0.0156976900
N -0.8765553530 -1.7463586810 -0.0420755910
N -1.0008959230 -2.8671716600 -0.0848710790
