14
0 1
H 1.6739549870 0.8241717750 -3.3842336250
H 0.4912430200 -0.0207836580 -4.4118490190
H 0.8958951730 -0.6653423650 -2.7834001840
H -2.7186829980 0.4628037750 -2.2188291960
H -1.5421980850 -0.8790532350 -2.2010635290
C 0.7656458750 0.2276802850 -3.3883681440
S -0.5351395000 1.2567970280 -2.6604624870
O -0.1778395060 1.4491091810 -1.2200040420
C -1.8598970640 0.0222860000 -2.7179031340
H -2.1016880640 -0.1844953860 -3.7586286500
P 0.0124010660 -0.1977273720 0.2613871350
F 0.4715577570 -1.1843818630 1.4549608730
F 0.4014886120 -1.1971308770 -0.9492440370
H 1.2225131500 0.5452263620 0.2486814960
