12
0 1
H 1.4884111130 -0.8393297700 -0.9469987500
H 2.6030132280 -1.8440086410 -0.0153360800
H 2.5597883590 -0.1001756540 0.2686684780
H 0.0787742600 -0.1195603830 1.2147783090
C 1.9576692800 -0.9705585990 0.0246945120
S 0.7199176900 -1.2970947460 1.3203501340
H -1.5254268800 0.0891194240 -2.3651218280
H -2.5953261310 0.0214570740 -0.9605981050
H -1.0476674090 -0.8280815300 -0.9045291280
H 0.3609222750 1.4829274770 -1.1114554840
C -1.5572096490 0.0547936010 -1.2804192230
S -0.8568844940 1.5743349660 -0.5570721340
