16
0 1
H 1.9404862670 -0.2831152240 0.3000300580
H 2.7088639690 -1.7496683630 -0.3363375550
H 2.5169729040 -1.5499622150 1.4105135820
H -0.1925665520 -1.5118813010 1.2109097400
C 2.0643968760 -1.3523450090 0.4434425040
S 0.4679423560 -2.2162719100 0.2804649020
H -2.2404990410 0.1779100840 0.2370413660
H -2.2984635270 0.6343857270 -1.4791278170
H -1.6565923340 -0.9322974110 -1.0256546890
H 1.4051223080 1.1100635980 -1.8182456280
H 0.6285775390 -0.4601532580 -2.1197283790
C -1.7202580050 0.1122743970 -0.7123838730
C -0.3423557870 0.6930209600 -0.6345554890
S 0.2529102210 1.3594665620 0.7255275080
C 0.4534235060 0.5960367890 -1.8988699970
H -0.1144562190 1.0030106290 -2.7386244660
