17
0 1
C 0.0815256350 1.8664653090 0.0000000000
O 1.1279482630 1.2598875730 0.0000000000
O -1.1161263840 1.2704006790 0.0000000000
H -0.9946601530 0.2883306280 0.0000000000
C -0.0358207660 3.3658214240 0.0000000000
H 0.9520479880 3.8127819310 0.0000000000
H -0.5940148950 3.6914004670 -0.8767809810
H -0.5940148950 3.6914004670 0.8767809810
H 1.2580178830 -2.7952049950 -1.3791949770
H 1.1997913240 -1.0100370000 -1.3154833920
H 0.0262373780 -1.9154003530 -2.2994030700
H 0.0262373780 -1.9154003530 2.2994030700
H 1.1997913240 -1.0100370000 1.3154833920
H 1.2580178830 -2.7952049950 1.3791949770
C 0.6105336250 -1.9211282540 -1.3826428280
S -0.5589322890 -2.0003109620 0.0000000000
C 0.6105336250 -1.9211282540 1.3826428280
