10
0 1
H 1.2177430300 0.7881433110 -0.0789657260
H 1.9062262850 2.1132993830 -1.3254727830
S 1.8416587550 1.9773473110 0.0070044220
H -2.0522740270 0.3016173220 1.1535035780
H -2.3031155390 0.4077308180 -0.6062650550
H -1.1603096790 1.4993802180 0.1981852880
C -1.5682839900 0.4946474220 0.1952195480
N -0.4315164490 -0.4156146620 -0.0220244940
N -0.6933043000 -1.6126077950 -0.0484023950
N -0.8176448700 -2.7334207740 -0.0911978830
