11
0 1
H 0.4948113760 0.5506973310 -2.5035917920
H -1.0889103150 0.7129121640 -3.2996762590
H -0.0044174600 2.1481245260 -3.1367137350
C -0.3409833700 1.2170488070 -2.6995034090
N -0.9468755800 1.5166280940 -1.3676882140
O -0.6392975140 2.5588801770 -0.8251163730
O -1.6873452490 0.6672015390 -0.8942014540
P -0.0436169530 -0.6847232900 0.7084313840
F 1.0848558380 -1.0073697570 1.7953522010
F 0.9243966230 -0.3060088460 -0.5199304290
H -0.2589272520 0.6604379220 1.1275093270
