15
0 1
H 2.3065589950 -2.0578968030 -0.6495230130
H 3.3203143790 -1.4747125170 0.6764130500
H 2.5230711920 -0.3108302420 -0.3888258540
H 0.0700263290 -1.0199365440 0.3602303490
C 2.4224976400 -1.2775177840 0.0968402290
S 1.0286578420 -1.2837738960 1.2709384620
H 0.7459842050 1.4354016170 0.0978278410
H -0.1668245440 2.7140427020 -0.7454930510
H 0.8480405200 1.5944108100 -1.6678308690
H -2.9597208260 0.1936020480 0.4900680490
H -2.4357869200 1.8852162940 0.5279584170
H -1.4749252190 0.6342077410 1.3545472930
C 0.1930866850 1.6887808700 -0.8051231900
S -1.1835546190 0.5371849150 -1.0459561330
C -2.0951016430 0.8525435450 0.4867046090
