14
0 1
C -0.2075121110 -2.9301164470 0.0000000000
H -0.7077546530 -1.9874892180 0.0000000000
C 0.3729623740 -3.9766095260 0.0000000000
H 0.8813725410 -4.9080405300 0.0000000000
H -0.2941813310 2.8473652400 0.0000000000
H 1.2282717670 2.5695061060 0.8747188920
H 1.2282717670 2.5695061060 -0.8747188920
H 1.4247496470 -1.0907250980 0.0000000000
H 2.2491386550 0.2158685420 -0.8743136660
C 0.6357249610 2.2893208840 0.0000000000
C 0.3986828420 0.8095364680 0.0000000000
S -1.0995578900 0.1747923450 0.0000000000
C 1.6402862750 -0.0284816800 0.0000000000
H 2.2491386550 0.2158685420 0.8743136660
