17
0 1
N -0.7902170010 0.7778941320 2.2847277800
H -1.7322437220 0.6168180370 2.6155391980
H -0.8555026220 0.9918126630 1.2966623690
C -0.1683663130 1.8838217970 3.0127044300
H 0.8468834540 2.0289651680 2.6450049310
H -0.6934582430 2.8422462260 2.9317887050
H -0.0959131990 1.6276769520 4.0690337620
H -1.8295884000 -2.6297586910 -0.0679544500
H -2.3587701280 -0.9372366890 0.0198417730
H -1.0259869810 -1.5108880560 1.0567531400
H 2.4280932990 -0.2893692000 -0.0827055450
H 1.2926302140 -0.0204468590 1.2755636390
H 2.1302614440 1.3539875170 0.5225748360
C -1.5018762320 -1.6022605720 0.0851094790
S -0.3202567310 -1.2516993820 -1.2558876030
S 0.3328579840 0.6479269220 -0.8487158330
C 1.6836093090 0.3764902270 0.3431001300
