20
0 1
N -0.4802355100 2.0419965750 1.3318350080
H -0.9813680460 1.2291301210 0.9888198230
H -1.1437573110 2.8034576480 1.3814437260
C 0.0899142500 1.7698184720 2.6502004390
H 0.6069807750 2.6569388800 3.0146814620
H -0.6352349660 1.4639921110 3.4134679150
H 0.8338340540 0.9776801370 2.5643137000
H 0.8579760300 -2.5153598930 0.0159470270
H 0.5681539680 -1.3727502470 1.3309402230
H 2.5862057570 -0.8612908450 -0.3635742800
H -0.6112426890 0.9808411990 -1.5493059380
H 1.5076593440 0.4632139650 0.0891474660
H -0.9351084230 -0.3142056000 -2.7148103220
H 1.6033929510 0.4746309610 -2.3698636580
H 1.2657754090 -1.2550530410 -2.4195647340
S -1.0689474080 -1.1219837140 -0.4377392760
C 0.5999738250 -1.4844864620 0.2503102530
C 1.5588487050 -0.5001936110 -0.4173165570
C 1.0828636250 -0.3361542810 -1.8600038280
C -0.4176332770 -0.0611925950 -1.7934214760
