12
0 1
H -0.3783004260 1.4927994500 0.0000000000
Cl 0.1522984460 2.6991762400 0.0000000000
H 1.6673383580 0.4087121240 0.0000000000
H 2.2358722180 -1.0282541630 0.8740536850
H 2.2358722180 -1.0282541630 -0.8740536850
H -0.7407588230 -3.1539169360 0.0000000000
H 0.8069246780 -3.1551367460 -0.8746589410
C 1.6830373160 -0.6748670810 0.0000000000
C 0.3137257670 -1.2764345150 0.0000000000
S -1.0543310330 -0.3911479900 0.0000000000
C 0.2747006180 -2.7730826630 0.0000000000
H 0.8069246780 -3.1551367460 0.8746589410
