11
0 1
H 0.4948113760 0.5506973310 -2.5035917920
H -1.0889103150 0.7129121640 -3.2996762590
H -0.0044174600 2.1481245260 -3.1367137350
C -0.3409833700 1.2170488070 -2.6995034090
N -0.9468755800 1.5166280940 -1.3676882140
O -0.6392975140 2.5588801770 -0.8251163730
O -1.6873452490 0.6672015390 -0.8942014540
P 0.5375866160 -1.8437963530 3.3922085230
F 1.6660594070 -2.1664428200 4.4791293400
F 1.5056001920 -1.4650819090 2.1638467100
H 0.3222763170 -0.4986351410 3.8112864660
