17
0 1
C 0.0815256350 1.8664653090 0.0000000000
O 1.1279482630 1.2598875730 0.0000000000
O -1.1161263840 1.2704006790 0.0000000000
H -0.9946601530 0.2883306280 0.0000000000
C -0.0358207660 3.3658214240 0.0000000000
H 0.9520479880 3.8127819310 0.0000000000
H -0.5940148950 3.6914004670 -0.8767809810
H -0.5940148950 3.6914004670 0.8767809810
H 1.2372689370 -2.6862220620 -1.3791949770
H 1.1790423780 -0.9010540670 -1.3154833920
H 0.0054884320 -1.8064174200 -2.2994030700
H 0.0054884320 -1.8064174200 2.2994030700
H 1.1790423780 -0.9010540670 1.3154833920
H 1.2372689370 -2.6862220620 1.3791949770
C 0.5897846790 -1.8121453210 -1.3826428280
S -0.5796812350 -1.8913280290 0.0000000000
C 0.5897846790 -1.8121453210 1.3826428280
