11
0 1
H -0.0916933190 -0.0170741370 -1.0314738490
Cl 0.6432304760 -0.4462036890 -2.0460584230
H 1.6285430530 0.7399891600 0.6179921700
H 0.9765796890 1.1764448040 2.2214326350
H 0.7378733650 2.2566163120 0.8365882140
H -1.3148082480 -1.8510068760 1.0870579490
H -0.2425910240 -1.2632500600 2.3701951010
H 0.4196372570 -1.6791524260 0.7654983670
C 0.8072067410 1.2176609880 1.1479630700
S -0.7664606230 0.4272006340 0.7245285370
C -0.4295362700 -1.2571889340 1.2988697350
