10
0 1
H -1.7243482310 -0.0273553600 -1.4740261930
H -1.2964354920 -1.4151597080 -2.4840978980
H -1.5723015250 0.1600276500 -3.2435389450
H 0.5277902060 1.2830509360 -1.9498356390
C -1.1850082300 -0.3412917070 -2.3620216420
S 0.6012469220 -0.0377290810 -2.1728921470
P 0.3626376360 -1.0985297490 0.7326608850
F -0.6749669060 0.1226829710 0.8125516000
F 0.4417586770 -1.4060657630 2.3078380990
H 1.5406833630 -0.2964634470 0.6949125480
