17
0 1
C 0.0815256350 1.8664653090 0.0000000000
O 1.1279482630 1.2598875730 0.0000000000
O -1.1161263840 1.2704006790 0.0000000000
H -0.9946601530 0.2883306280 0.0000000000
C -0.0358207660 3.3658214240 0.0000000000
H 0.9520479880 3.8127819310 0.0000000000
H -0.5940148950 3.6914004670 -0.8767809810
H -0.5940148950 3.6914004670 0.8767809810
H 1.4447583960 -3.7760513900 -1.3791949770
H 1.3865318370 -1.9908833960 -1.3154833920
H 0.2129778910 -2.8962467480 -2.2994030700
H 0.2129778910 -2.8962467480 2.2994030700
H 1.3865318370 -1.9908833960 1.3154833920
H 1.4447583960 -3.7760513900 1.3791949770
C 0.7972741380 -2.9019746500 -1.3826428280
S -0.3721917760 -2.9811573580 0.0000000000
C 0.7972741380 -2.9019746500 1.3826428280
