12
0 1
H 0.9402161320 0.7745748130 -0.4192669550
H 0.9126510720 2.6310863100 -1.0146834350
S 1.3462513520 1.9701561980 0.0682478520
H -1.2489468100 -2.4204450130 1.8139906370
H -0.2330628080 -0.9627094390 1.6988508980
H 0.4631229540 -2.5630764070 1.3828631440
H -2.5923921790 -0.6027042570 -1.4364713060
H -2.0088471960 0.1951333790 0.0359952550
H -3.0571609840 -1.2435161560 0.1476245400
C -0.4274138470 -1.9483443170 1.2790156760
S -0.7970615720 -1.8308845420 -0.4896836940
C -2.2584000050 -0.7638185640 -0.4144695280
