14
0 1
H 1.2502115360 1.5960457020 0.1369126070
H 3.1509149060 1.8419399770 0.5301690190
S 2.0233753640 2.5385946740 0.7326051620
H -1.9929040550 -2.0165662130 -2.4621010640
H -0.4545216980 -0.0669156270 -2.3999180020
C -1.8656230020 -2.3344863740 -0.3332420920
C -1.5690229780 -1.6875097620 -1.5248085000
C -0.7091131300 -0.5977258580 -1.4911959410
N -0.1546812750 -0.1437761260 -0.3677990910
C -0.4439160480 -0.7695073280 0.7726268820
C -1.2920375450 -1.8670027520 0.8406686370
H 0.0241362370 -0.3717479510 1.6647476130
H -1.4947638190 -2.3389652860 1.7906921560
H -2.5310572120 -3.1860428350 -0.3200693860
