8
0 1
P 1.2012695350 -0.2041739990 -0.6935991410
H 0.0071113550 -0.0410057050 0.0524981220
H 1.1484720010 -1.6207910910 -0.6596282840
H 2.0429579210 -0.1224472720 0.4446392360
N -4.6418777090 0.9753034910 2.4269384220
H -5.3943055600 1.1788270860 1.7812330910
H -4.9166839980 0.1613634830 2.9621391150
H -4.5814464950 1.7527222230 3.0722711280
