12
0 1
H -0.3783004260 1.4927994500 0.0000000000
Cl 0.1522984460 2.6991762400 0.0000000000
H 1.5922238460 0.1993846310 0.0000000000
H 2.1607577060 -1.2375816560 0.8740536850
H 2.1607577060 -1.2375816560 -0.8740536850
H -0.8158733350 -3.3632444290 0.0000000000
H 0.7318101660 -3.3644642390 -0.8746589410
C 1.6079228040 -0.8841945740 0.0000000000
C 0.2386112550 -1.4857620080 0.0000000000
S -1.1294455450 -0.6004754830 0.0000000000
C 0.1995861060 -2.9824101560 0.0000000000
H 0.7318101660 -3.3644642390 0.8746589410
