17
0 1
N -0.7902170010 0.7778941320 2.2847277800
H -1.7322437220 0.6168180370 2.6155391980
H -0.8555026220 0.9918126630 1.2966623690
C -0.1683663130 1.8838217970 3.0127044300
H 0.8468834540 2.0289651680 2.6450049310
H -0.6934582430 2.8422462260 2.9317887050
H -0.0959131990 1.6276769520 4.0690337620
H -1.7635683670 -2.6488634550 -0.1871421280
H -2.2927500950 -0.9563414530 -0.0993459050
H -0.9599669480 -1.5299928200 0.9375654620
H 2.4941133320 -0.3084739640 -0.2018932230
H 1.3586502470 -0.0395516230 1.1563759610
H 2.1962814770 1.3348827530 0.4033871580
C -1.4358561990 -1.6213653360 -0.0340781990
S -0.2542366980 -1.2708041460 -1.3750752810
S 0.3988780170 0.6288221580 -0.9679035110
C 1.7496293420 0.3573854630 0.2239124520
