8
0 1
H -0.7132305290 0.3608139090 -0.3896398720
Cl -0.9757461800 1.5043263270 -0.9712842970
H 1.6817103200 0.5998649010 0.5348152300
H 2.2068156990 -0.8059653310 -0.4008701920
H 2.4390652470 -0.7966165420 1.3535876740
H -0.1945734480 -0.7775952510 1.8685173100
C 1.7859585160 -0.4807044350 0.5464084020
S 0.1572544510 -1.2897322960 0.6792674460
