25
0 1
C -2.3579099740 -0.5307631530 1.5138096910
H -2.4588881350 0.4310647810 2.0140641140
H -1.4356415000 -1.0123263080 1.8322439380
H -3.2036872900 -1.1446768480 1.8174747160
C -2.4351853830 -0.3119418000 0.0159270190
O -3.4135868770 0.1943318490 -0.5089147940
N -1.3525984040 -0.7291660710 -0.6884203180
H -0.5329276230 -1.0379593150 -0.1845887440
C -1.2650049230 -0.5632727690 -2.1234444720
H -2.2640938590 -0.6142959310 -2.5463743800
H -0.8317091330 0.4011266840 -2.4017529900
H -0.6533707160 -1.3576120240 -2.5462416590
H 1.5825009360 -0.5508435910 -1.6202101880
H 3.2322399520 -0.6862144760 -1.0072590190
H 2.3319560960 1.7386471890 -1.7460442190
H 1.8351272440 1.2343074140 2.0756017140
H 3.2581420240 1.5921513330 -0.2558594630
H 0.1384481100 0.8282077390 1.7981807910
H 1.1971750740 2.8078191420 0.3411631080
H 0.2124567340 1.6007089300 -0.4789473330
S 1.6158534840 -0.8052985600 0.7918859070
C 2.2619987480 -0.2292517300 -0.8341554440
C 2.3324474680 1.2950068070 -0.7505448810
C 1.1351546520 1.7511287290 0.0816334150
C 1.1198031340 0.8814348610 1.3358350480
