14
0 1
C -0.2075121110 -2.9301164470 0.0000000000
H -0.7077546530 -1.9874892180 0.0000000000
C 0.3729623740 -3.9766095260 0.0000000000
H 0.8813725410 -4.9080405300 0.0000000000
H -0.3431567350 3.1176504360 0.0000000000
H 1.1792963630 2.8397913020 0.8747188920
H 1.1792963630 2.8397913020 -0.8747188920
H 1.3757742430 -0.8204399020 0.0000000000
H 2.2001632510 0.4861537380 -0.8743136660
C 0.5867495570 2.5596060800 0.0000000000
C 0.3497074380 1.0798216640 0.0000000000
S -1.1485332940 0.4450775410 0.0000000000
C 1.5913108710 0.2418035160 0.0000000000
H 2.2001632510 0.4861537380 0.8743136660
