12
0 1
H 0.3893323140 2.3440454870 -1.6818066360
H -1.1998744820 1.7591983820 -2.1825468420
H 0.1021874670 0.6058349130 -1.8686483700
P -1.1705847390 1.3419585580 1.3289226680
C -0.7484701020 1.4553388160 -0.1481612860
C -0.3435028920 1.5476729020 -1.5397217490
H 1.8601418180 -0.1855990700 0.2466063120
H 2.9035679340 -1.6050051010 0.0548405720
H 1.8309850230 -1.4866334550 1.4569884970
H -0.3891579700 -1.5533726940 -0.0473058440
C 1.9334305640 -1.2578098700 0.4003827910
S 0.6867210790 -2.1481467910 -0.5856894390
