14
0 1
H -0.8252440580 -0.1185131890 -2.1815071940
H -1.6981931010 1.2180868610 -2.9591993710
H -0.7189706580 0.1476409580 -3.9351217700
H 1.4175952820 3.2217576430 -3.6833042700
H 0.7352472600 2.0467860540 -4.8284426830
C -0.7735780570 0.6343576800 -2.9583614040
C 0.3925437990 1.5558191060 -2.7834777780
S 1.3927192710 1.4865874040 -1.5015700060
C 0.5789190300 2.5621075830 -3.8773560360
H -0.3320333370 3.1544601800 -3.9949345730
P 0.1066443510 -0.2116136160 1.0389629160
F -0.1886441410 -1.0886730580 2.3552605700
F -0.2316186810 -1.3495458000 -0.0399403920
H 1.5158761050 -0.4263856400 1.0531336440
