15
0 1
H 2.3065589950 -2.0578968030 -0.6495230130
H 3.3203143790 -1.4747125170 0.6764130500
H 2.5230711920 -0.3108302420 -0.3888258540
H 0.0700263290 -1.0199365440 0.3602303490
C 2.4224976400 -1.2775177840 0.0968402290
S 1.0286578420 -1.2837738960 1.2709384620
H 0.8119621490 1.3534478560 0.1718376560
H -0.1008466000 2.6320889410 -0.6714832360
H 0.9140184640 1.5124570490 -1.5938210540
H -2.8937428820 0.1116482870 0.5640778640
H -2.3698089760 1.8032625330 0.6019682320
H -1.4089472750 0.5522539800 1.4285571080
C 0.2590646290 1.6068271090 -0.7311133750
S -1.1175766750 0.4552311540 -0.9719463180
C -2.0291236990 0.7705897840 0.5607144240
