17
0 1
C 2.5909018700 -0.0496886190 0.4396133820
H 1.9332318940 0.2719392570 -0.3385835730
C 3.3060900400 -0.4175117100 1.3258072740
H 3.9471557300 -0.7412145690 2.1071409570
H 0.6491398720 -1.7191329780 -0.3785081270
H -0.8255202760 -1.7659659720 -1.3539891200
H -1.0733718830 -2.0255101260 1.2986642380
H -1.3885736560 1.7703747240 0.3758808470
H -2.1704090610 -0.9250534660 0.4665894530
H 0.3232788680 1.9610141250 0.7701308700
H -1.1816911080 0.3648784160 2.3293144310
H 0.4335746880 -0.1618055730 1.8647418640
S 0.0045944090 0.4930431250 -1.1342903880
C -0.3040574380 -1.2278780890 -0.5670821620
C -1.1235377320 -1.1061039020 0.7149522350
C -0.5556048710 0.0876149030 1.4811221780
C -0.4431274860 1.2438931450 0.4873201500
