16
0 1
H 1.9404862670 -0.2831152240 0.3000300580
H 2.7088639690 -1.7496683630 -0.3363375550
H 2.5169729040 -1.5499622150 1.4105135820
H -0.1925665520 -1.5118813010 1.2109097400
C 2.0643968760 -1.3523450090 0.4434425040
S 0.4679423560 -2.2162719100 0.2804649020
H -2.6623930530 0.5885555310 0.3434157290
H -2.7203575390 1.0450311740 -1.3727534540
H -2.0784863460 -0.5216519640 -0.9192803260
H 0.9832282960 1.5207090450 -1.7118712650
H 0.2066835270 -0.0495078110 -2.0133540160
C -2.1421520170 0.5229198440 -0.6060095100
C -0.7642497990 1.1036664070 -0.5281811260
S -0.1689837910 1.7701120090 0.8319018710
C 0.0315294940 1.0066822360 -1.7924956340
H -0.5363502310 1.4136560760 -2.6322501030
