14
0 1
C -0.2075121110 -2.9301164470 0.0000000000
H -0.7077546530 -1.9874892180 0.0000000000
C 0.3729623740 -3.9766095260 0.0000000000
H 0.8813725410 -4.9080405300 0.0000000000
H -0.3186690330 2.9825078380 0.0000000000
H 1.2037840650 2.7046487040 0.8747188920
H 1.2037840650 2.7046487040 -0.8747188920
H 1.4002619450 -0.9555825000 0.0000000000
H 2.2246509530 0.3510111400 -0.8743136660
C 0.6112372590 2.4244634820 0.0000000000
C 0.3741951400 0.9446790660 0.0000000000
S -1.1240455920 0.3099349430 0.0000000000
C 1.6157985730 0.1066609180 0.0000000000
H 2.2246509530 0.3510111400 0.8743136660
