8
0 1
H -0.7132305290 0.3608139090 -0.3896398720
Cl -0.9757461800 1.5043263270 -0.9712842970
H 1.6358953210 0.6867357540 0.4785569500
H 2.1610007000 -0.7190944780 -0.4571284720
H 2.3932502480 -0.7097456890 1.2973293940
H -0.2403884470 -0.6907243980 1.8122590300
C 1.7401435170 -0.3938335820 0.4901501220
S 0.1114394520 -1.2028614430 0.6230091660
