10
0 1
H -1.7243482310 -0.0273553600 -1.4740261930
H -1.2964354920 -1.4151597080 -2.4840978980
H -1.5723015250 0.1600276500 -3.2435389450
H 0.5277902060 1.2830509360 -1.9498356390
C -1.1850082300 -0.3412917070 -2.3620216420
S 0.6012469220 -0.0377290810 -2.1728921470
P 0.4178682320 -1.0906329950 0.8530070850
F -0.6197363100 0.1305797250 0.9328978000
F 0.4969892730 -1.3981690090 2.4281842990
H 1.5959139590 -0.2885666930 0.8152587480
