16
0 1
O -0.4292595150 1.2296804640 -2.5038082560
H -0.3615606800 1.3689077170 -1.5514468960
C -1.3799109120 0.2017092070 -2.7351714010
H -1.4185510400 0.0350798010 -3.8095066650
H -1.0967768190 -0.7359873450 -2.2484297380
H -2.3798479770 0.4833464480 -2.3929441780
H -0.6155815070 -2.5148371920 2.3024614280
H -0.1501488800 -0.9440567050 2.9911440210
H 1.0166866130 -1.8824566110 2.0204221680
H 1.6444390100 -0.0190684280 -1.3974789420
H 2.4586502260 -0.3782318330 0.1564828610
H 2.5180468680 1.2580275600 -0.5279239190
C -0.0281369920 -1.6115657630 2.1434116030
S -0.6856834660 -0.8433843460 0.6299236310
S 0.4097892160 0.8844916140 0.4784384940
C 1.9083250850 0.3624721690 -0.4161861920
