11
0 1
P 1.6055483490 -0.3906178240 -0.7274059980
H 0.8826345100 -0.2881735740 0.4863654890
H 2.8716141110 -0.4727560020 -0.0952177660
H 1.6885200540 1.0128840150 -0.9096171990
N -1.3333892880 0.0816303780 1.2977806430
H -1.5338877320 0.7624191310 2.0177611230
H -1.8707398760 -0.7466102420 1.5155817710
C -1.6816659120 0.5989769560 -0.0252424820
H -1.4390679160 -0.1495779760 -0.7786312910
H -2.7341348160 0.8764973930 -0.1516145460
H -1.0747923860 1.4785647220 -0.2372705010
