12
0 1
H -0.2606826530 0.6265387230 -1.6158020870
Cl 0.1058109800 1.5167026200 -2.4979026690
H 1.8409034070 -1.9677951950 2.6602576880
H 0.2425648170 -2.5863910640 2.1926592230
H 0.3877782420 -1.0397348620 3.0720289150
H -0.5553399710 1.9049648890 0.6582724960
H -1.2447899680 1.0299796010 2.0555901870
H -2.2619620190 1.4080501470 0.6504949550
C 0.8408467030 -1.6907142800 2.3297478720
S 1.0624802130 -0.8229702910 0.7454489600
S -0.8692373410 -0.4439361260 0.1655322380
C -1.2576790450 1.1401373580 0.9753817840
