18
0 1
C 2.5118935250 -1.3688008000 0.0148074310
O 1.7621630280 -1.9714812590 0.7444220990
O 2.2083859240 -0.1819016320 -0.5337285870
H 1.3154170670 0.0852313850 -0.2276818480
C 3.8811181870 -1.8385370420 -0.3908736480
H 4.0839034310 -2.8067712920 0.0529275090
H 3.9436933000 -1.9022049700 -1.4762839340
H 4.6280097810 -1.1152399900 -0.0660489080
H -3.4442620030 2.6153036430 -0.7873719690
H -2.6824999170 2.5119247910 0.8144503940
H -3.5004506080 1.0890622440 0.1135991830
H -0.9377058350 -1.5617993250 -0.8132011720
H -2.0236049100 -1.3541704760 0.5895926560
H -0.3437010110 -1.9211411470 0.8182433000
C -2.9001020380 1.9687445990 -0.1003312060
S -1.3570294270 1.5147242170 -0.9522665250
S -0.3636319670 0.4082307070 0.4620289500
C -1.0002844760 -1.2808667830 0.2336203650
