17
0 1
N -1.8262731540 2.2398072980 0.1981390760
H -1.3275360990 1.7149792600 -0.5154075300
H -2.8055166640 2.2402047570 -0.0584919820
H -1.5088445370 3.1995041210 0.1435621360
H -0.5330558940 -2.2177433850 -0.2753352290
H -1.8347069080 -1.0221207850 -0.2912206870
H -0.6373752440 -1.5561119230 2.0518113070
H 1.0308697960 1.5217765810 0.3861086760
H -0.9688414880 0.1257215800 1.6207123580
H 2.3399202560 0.4954282730 -0.2184843720
H 1.4142750620 0.0340309630 2.2532611290
H 1.6717726330 -1.3464546270 1.1878206120
S 0.2176948170 -0.1140963850 -1.2066807340
C -0.7797492880 -1.1760967540 -0.0798361110
C -0.4027684740 -0.7624417820 1.3419737800
C 1.0892218710 -0.4336703630 1.3236442070
C 1.3130762140 0.5009077180 0.1371316620
