14
0 1
H -0.8252440580 -0.1185131890 -2.1815071940
H -1.6981931010 1.2180868610 -2.9591993710
H -0.7189706580 0.1476409580 -3.9351217700
H 1.4175952820 3.2217576430 -3.6833042700
H 0.7352472600 2.0467860540 -4.8284426830
C -0.7735780570 0.6343576800 -2.9583614040
C 0.3925437990 1.5558191060 -2.7834777780
S 1.3927192710 1.4865874040 -1.5015700060
C 0.5789190300 2.5621075830 -3.8773560360
H -0.3320333370 3.1544601800 -3.9949345730
P 0.0783764760 -0.1529930160 0.9369835450
F -0.2169120160 -1.0300524570 2.2532811980
F -0.2598865560 -1.2909251990 -0.1419197640
H 1.4876082300 -0.3677650390 0.9511542720
