17
0 1
N -1.8262731540 2.2398072980 0.1981390760
H -1.3275360990 1.7149792600 -0.5154075300
H -2.8055166640 2.2402047570 -0.0584919820
H -1.5088445370 3.1995041210 0.1435621360
H -0.3704000080 -2.4102776630 -0.3481008290
H -1.6720510220 -1.2146550630 -0.3639862870
H -0.4747193580 -1.7486462010 1.9790457070
H 1.1935256820 1.3292423030 0.3133430760
H -0.8061856020 -0.0668126980 1.5479467580
H 2.5025761420 0.3028939950 -0.2912499720
H 1.5769309480 -0.1585033150 2.1804955290
H 1.8344285190 -1.5389889050 1.1150550120
S 0.3803507030 -0.3066306630 -1.2794463340
C -0.6170934020 -1.3686310320 -0.1526017110
C -0.2401125880 -0.9549760600 1.2692081800
C 1.2518777570 -0.6262046410 1.2508786070
C 1.4757321000 0.3083734400 0.0643660620
