17
0 1
N -0.7902170010 0.7778941320 2.2847277800
H -1.7322437220 0.6168180370 2.6155391980
H -0.8555026220 0.9918126630 1.2966623690
C -0.1683663130 1.8838217970 3.0127044300
H 0.8468834540 2.0289651680 2.6450049310
H -0.6934582430 2.8422462260 2.9317887050
H -0.0959131990 1.6276769520 4.0690337620
H -1.9616284680 -2.5915491640 0.1704209060
H -2.4908101960 -0.8990271620 0.2582171290
H -1.1580270490 -1.4726785290 1.2951284960
H 2.2960532310 -0.2511596730 0.1556698110
H 1.1605901460 0.0177626680 1.5139389950
H 1.9982213760 1.3921970440 0.7609501920
C -1.6339163000 -1.5640510450 0.3234848350
S -0.4522967990 -1.2134898550 -1.0175122470
S 0.2008179160 0.6861364490 -0.6103404770
C 1.5515692410 0.4146997540 0.5814754860
