16
0 1
H 1.2592799870 1.1140648710 -0.2826555190
H 2.2827901730 2.7341834090 -0.6757784680
S 1.0711041890 2.4516331020 -0.1764195360
H 0.1066509400 -0.6368640530 1.8004995220
H 0.0168321750 -2.3800777760 2.0815082160
H -2.2861504300 -1.0252987990 1.8925005940
H -1.3035630950 -2.3484698780 -1.6629974630
H -2.1387709150 -2.5435246640 1.0101940170
H -0.5993154140 -0.7626677360 -2.0065212530
H -2.9115968840 -0.8692757570 -0.6326829330
H -1.6583382450 0.2519496790 -0.1195185490
S 0.5809719280 -1.8909787850 -0.2171605250
C -0.2489249800 -1.5821882740 1.3936220360
C -1.7444817350 -1.5296130170 1.0921527690
C -1.8951670250 -0.8050780830 -0.2445062970
C -0.9009635010 -1.4429796830 -1.2145020910
