9
0 1
H -0.5738853240 0.2317159360 -0.0098381340
Cl -1.3108533540 0.7244884260 -0.9479430520
S 0.9770661540 -0.0340764200 2.0659890280
P 0.4700442690 1.9749299650 2.4900296300
S -2.1509350030 -0.2054705950 2.8695926880
S 0.1231610360 -0.1280387640 5.1752714160
P -0.1313644500 1.9016444730 4.6583951960
P -1.7067470050 1.8482286270 3.0482586220
P -0.3127945400 -1.1293156870 3.3618896640
