9
0 1
H -0.5738853240 0.2317159360 -0.0098381340
Cl -1.3108533540 0.7244884260 -0.9479430520
S 0.9032113220 -0.0214196410 1.9671401160
P 0.3961894370 1.9875867440 2.3911807180
S -2.2247898350 -0.1928138160 2.7707437760
S 0.0493062040 -0.1153819850 5.0764225040
P -0.2052192820 1.9143012520 4.5595462830
P -1.7806018370 1.8608854060 2.9494097100
P -0.3866493720 -1.1166589080 3.2630407520
