16
0 1
N -1.1925109770 0.4677159870 1.6969957070
H -2.1720465350 0.3451164770 1.9155307480
H -1.1209998660 0.6006820830 0.6941983180
C -0.6454964930 1.6244524150 2.4048233120
H 0.4092109080 1.7325513880 2.1530940810
H -1.1394772570 2.5775257580 2.1827646430
H -0.7060443570 1.4567873310 3.4797871280
H 2.2869365840 -0.9507956910 -0.3254511910
H 1.1893999040 -0.2875443110 0.9150653550
H 2.1273443940 0.8016919350 -0.1290162950
H -1.3730212520 -1.7679139910 -1.6336644060
H -0.8261549400 -1.7532859390 0.0563189670
H 0.1885735490 -2.4881796000 -1.2121023280
C 1.5954619810 -0.1455911120 -0.0843085240
S 0.2516878090 -0.0682410640 -1.2975893290
C -0.5069372950 -1.6832699520 -0.9817570440
