11
0 1
H -2.8928783370 1.3834413690 -2.4187540180
H -2.8836896580 0.1549431360 -3.7169078560
H -2.3380743830 -0.2831411260 -2.0686702020
C -2.3954642910 0.5024391720 -2.8151059020
O -1.0419850750 0.8659786700 -3.2365136660
C -0.2633821110 1.2722136170 -2.3072937660
N 0.4658791990 1.6354548960 -1.4882476840
P 0.2611884890 -0.4436997690 0.1703702750
F -1.1264137540 -0.7959414150 -0.5720991390
F 0.0139283560 -1.3115833250 1.4968790100
H -0.1869822810 0.7865567020 0.7291133660
