16
0 1
H 1.0155405080 -2.0643029460 -0.2634523160
H 1.4122134800 -3.5079079610 0.6833062710
H 2.2877670060 -1.9997820970 0.9783850910
H 0.0922749760 -0.7095980950 1.8326748910
C 1.3244239960 -2.4250380930 0.7127769290
S 0.0694148530 -2.0450842380 1.9792163620
H -2.7366353360 0.3020055350 0.7773502070
H -1.6860468900 -1.0251895160 0.2414329870
H -2.3125289610 0.1672184880 -0.9391920770
H 0.5038125570 2.5202884250 -2.1946811500
H -0.5109098240 1.1817666380 -2.7957389690
H 1.2259654870 1.2084666150 -3.1522639360
C -1.9552510000 0.0138136810 0.0750802360
S -0.5366897860 1.0972426390 0.4318054110
S 0.8773093200 0.4924714520 -0.9226435160
C 0.4672328070 1.4568437310 -2.4112566730
