12
0 1
H -0.2606826530 0.6265387230 -1.6158020870
Cl 0.1058109800 1.5167026200 -2.4979026690
H 1.9369909890 -1.7987728510 2.3789943730
H 0.3386523990 -2.4173687200 1.9113959080
H 0.4838658240 -0.8707125180 2.7907656000
H -0.4592523890 2.0739872330 0.3770091810
H -1.1487023860 1.1990019450 1.7743268720
H -2.1658744370 1.5770724910 0.3692316400
C 0.9369342850 -1.5216919360 2.0484845570
S 1.1585677950 -0.6539479470 0.4641856450
S -0.7731497590 -0.2749137820 -0.1157310770
C -1.1615914630 1.3091597020 0.6941184690
