22
0 1
C -1.3105597130 -0.3619070740 2.1752547790
H -0.7631085700 0.5746692090 2.2814908320
H -0.5951043100 -1.1765872190 2.0813035640
H -1.9111044450 -0.5030054270 3.0696901110
C -2.2335185050 -0.2440023340 0.9781870390
O -3.2805575310 0.3784509660 1.0339077180
N -1.8002808920 -0.8717422000 -0.1463058040
H -0.8687372710 -1.2533209680 -0.1443996340
C -2.4782630340 -0.7330609910 -1.4184056720
H -3.5217647560 -0.5026229860 -1.2277291810
H -2.0479671690 0.0722773880 -2.0175324330
H -2.4102112560 -1.6636032700 -1.9787370430
H 1.5172047200 2.8771924770 -1.5741221860
H 2.2400972230 1.4001460210 -2.2478046930
H 2.6858665080 1.9552989210 -0.6113958700
H 1.2626214750 -0.4815677090 2.0319172660
H 2.8355202070 -0.1194218400 1.2733965130
H 2.3422459240 -1.8029629090 1.5314888220
C 1.8841950060 1.8787202250 -1.3404381750
S 0.4622290650 0.9707241510 -0.6575054890
S 1.2168583190 -0.9117215770 -0.3530555110
C 1.9897630830 -0.8006742080 1.2918409550
