11
0 1
H 2.0822904090 -1.4254108960 -0.5819716710
H 2.5624349130 -0.0726982400 0.4511673310
H 1.3028124150 0.1638302240 -0.7745792570
H -0.4561485760 -1.3944222350 0.3877716940
C 1.7272083880 -0.5388739350 -0.0648453350
S 0.5083370210 -0.9740801280 1.2194161360
H -0.7767091120 1.3951774430 0.4282696520
H -0.8493663370 2.6167197610 -0.8800088910
H -2.3009822110 1.6611132940 -0.4689806410
C -1.2145162630 1.6512894150 -0.5342759130
F -0.8365989400 0.6781070460 -1.4608567540
