12
0 1
O -1.1176551450 0.1143078460 -1.5506700530
H -0.4232165790 -0.3384514260 -1.0538257920
C -0.5857106610 1.3306403920 -2.0459226970
H -1.3874232410 1.8448359560 -2.5716866380
H -0.2297527600 1.9826425470 -1.2413827330
H 0.2368511230 1.1651188650 -2.7477447070
H -1.1741632060 0.4843252350 1.1294577810
H 0.3006571290 1.3536695190 1.5779894950
H -0.3623816270 0.1486806830 2.6882044740
H 0.0845772980 -1.8968821540 1.0321306190
C -0.2209206300 0.4025020360 1.6423628850
S 0.8540962350 -0.8192285620 0.8168227950
