11
0 1
P 1.6055483490 -0.3906178240 -0.7274059980
H 0.8826345100 -0.2881735740 0.4863654890
H 2.8716141110 -0.4727560020 -0.0952177660
H 1.6885200540 1.0128840150 -0.9096171990
N -1.0871644220 0.0405410500 1.2076234030
H -1.2876628660 0.7213298030 1.9276038830
H -1.6245150090 -0.7876995700 1.4254245310
C -1.4354410460 0.5578876280 -0.1153997220
H -1.1928430490 -0.1906673040 -0.8687885310
H -2.4879099500 0.8354080650 -0.2417717860
H -0.8285675200 1.4374753940 -0.3274277410
