16
0 1
H 1.2592799870 1.1140648710 -0.2826555190
H 2.2827901730 2.7341834090 -0.6757784680
S 1.0711041890 2.4516331020 -0.1764195360
H 0.3237095190 0.3247499170 1.7795411240
H 0.2338907540 -1.4184638060 2.0605498180
H -2.0690918510 -0.0636848290 1.8715421960
H -1.0865045160 -1.3868559080 -1.6839558610
H -1.9217123360 -1.5819106940 0.9892356190
H -0.3822568350 0.1989462340 -2.0274796510
H -2.6945383050 0.0923382130 -0.6536413310
H -1.4412796660 1.2135636490 -0.1404769470
S 0.7980305070 -0.9293648150 -0.2381189230
C -0.0318664010 -0.6205743040 1.3726636380
C -1.5274231560 -0.5679990470 1.0711943710
C -1.6781084460 0.1565358870 -0.2654646950
C -0.6839049220 -0.4813657130 -1.2354604890
