11
0 1
H -0.0916933190 -0.0170741370 -1.0314738490
Cl 0.6432304760 -0.4462036890 -2.0460584230
H 1.5535689080 0.7893530240 0.8131035460
H 0.9016055440 1.2258086670 2.4165440110
H 0.6628992200 2.3059801750 1.0316995900
H -1.3897823930 -1.8016430120 1.2821693250
H -0.3175651690 -1.2138861960 2.5653064770
H 0.3446631120 -1.6297885620 0.9606097430
C 0.7322325960 1.2670248520 1.3430744460
S -0.8414347680 0.4765644980 0.9196399130
C -0.5045104150 -1.2078250700 1.4939811110
