11
0 1
H 0.4948113760 0.5506973310 -2.5035917920
H -1.0889103150 0.7129121640 -3.2996762590
H -0.0044174600 2.1481245260 -3.1367137350
C -0.3409833700 1.2170488070 -2.6995034090
N -0.9468755800 1.5166280940 -1.3676882140
O -0.6392975140 2.5588801770 -0.8251163730
O -1.6873452490 0.6672015390 -0.8942014540
P 0.0574619280 -0.8863012140 1.1751752350
F 1.1859347190 -1.2089476810 2.2620960520
F 1.0254755040 -0.5075867700 -0.0531865780
H -0.1578483710 0.4588599980 1.5942531780
