14
0 1
H 1.2502115360 1.5960457020 0.1369126070
H 3.1509149060 1.8419399770 0.5301690190
S 2.0233753640 2.5385946740 0.7326051620
H -1.7374689990 -1.7002349710 -2.3703353000
H -0.1990866420 0.2494156150 -2.3081522380
C -1.6101879460 -2.0181551320 -0.2414763280
C -1.3135879220 -1.3711785200 -1.4330427360
C -0.4536780740 -0.2813946160 -1.3994301770
N 0.1007537810 0.1725551160 -0.2760333270
C -0.1884809920 -0.4531760860 0.8643926460
C -1.0366024890 -1.5506715100 0.9324344010
H 0.2795712930 -0.0554167090 1.7565133770
H -1.2393287630 -2.0226340440 1.8824579200
H -2.2756221560 -2.8697115930 -0.2283036220
