9
0 1
C 0.3159501330 -1.6374502990 0.0000000000
H 0.8154033660 -0.6977382090 0.0000000000
C -0.2594271850 -2.6862143750 0.0000000000
H -0.7639063370 -3.6198488580 0.0000000000
H -0.9643920010 2.0356412950 0.8938929020
H -0.9643920010 2.0356412950 -0.8938929020
H -1.2638887190 0.5167373550 0.0000000000
C -0.7264130580 1.4629038620 0.0000000000
F 0.6439418900 1.1945901210 0.0000000000
