12
0 1
H 1.4884111130 -0.8393297700 -0.9469987500
H 2.6030132280 -1.8440086410 -0.0153360800
H 2.5597883590 -0.1001756540 0.2686684780
H 0.0787742600 -0.1195603830 1.2147783090
C 1.9576692800 -0.9705585990 0.0246945120
S 0.7199176900 -1.2970947460 1.3203501340
H -1.4269364850 -0.0891853490 -2.1786112550
H -2.4968357360 -0.1568476990 -0.7740875320
H -0.9491770140 -1.0063863030 -0.7180185550
H 0.4594126700 1.3046227040 -0.9249449110
C -1.4587192540 -0.1235111720 -1.0939086500
S -0.7583940990 1.3960301930 -0.3705615610
