16
0 1
H 0.0671929930 0.9717733360 0.0000000000
H 1.3230453480 2.4867834120 0.0000000000
S -0.0095528490 2.3404433530 0.0000000000
H 0.6105671430 -2.6668449250 -1.3031934240
H 0.1920132050 -1.1263459870 -2.0805064140
H 1.7121944540 -1.2798829060 -1.1975902800
H 1.7121944540 -1.2798829060 1.1975902800
H 0.6105671430 -2.6668449250 1.3031934240
H 0.1920132050 -1.1263459870 2.0805064140
H -1.6247263350 -2.4577784920 0.0000000000
H -1.8767343700 -0.9389561270 0.8827889050
C 0.6631520610 -1.5717967400 -1.2058754620
N 0.0106647560 -1.0900020730 0.0000000000
C 0.6631520610 -1.5717967400 1.2058754620
C -1.4140269270 -1.3777170070 0.0000000000
H -1.8767343700 -0.9389561270 -0.8827889050
