13
0 1
H 0.3532496550 2.1874223900 -0.7238057660
H 0.2325696130 2.5434918900 -2.4662246910
H 1.4796148930 1.4377687850 -1.8626486330
H -2.9787965610 0.3326997670 -1.6977403020
H -2.4353497720 1.8951564250 -2.3264083740
H -2.2483169660 1.5140910960 -0.5961500100
C 0.4563691020 1.7777671980 -1.7257174380
S -0.6188567900 0.3372689950 -1.9449069610
C -2.2221884860 1.1082080380 -1.6051752170
P 0.0069757090 -0.1156160310 1.7747012530
F -0.8120644920 1.2266266450 1.4695602850
F 1.3697299360 0.2486102800 1.0268739800
H -0.5498525520 -0.8578682260 0.6922875330
