16
0 1
H 1.2592799870 1.1140648710 -0.2826555190
H 2.2827901730 2.7341834090 -0.6757784680
S 1.0711041890 2.4516331020 -0.1764195360
H 0.2965771970 0.2045481700 1.7821609240
H 0.2067584320 -1.5386655520 2.0631696180
H -2.0962241730 -0.1838865760 1.8741619960
H -1.1136368380 -1.5070576540 -1.6813360620
H -1.9488446580 -1.7021124400 0.9918554180
H -0.4093891570 0.0787444880 -2.0248598520
H -2.7216706270 -0.0278635340 -0.6510215320
H -1.4684119880 1.0933619020 -0.1378571480
S 0.7708981850 -1.0495665620 -0.2354991240
C -0.0589987230 -0.7407760500 1.3752834380
C -1.5545554780 -0.6882007940 1.0738141700
C -1.7052407680 0.0363341400 -0.2628448960
C -0.7110372440 -0.6015674600 -1.2328406900
