14
0 1
H -0.6637288900 3.2637539190 -1.4148408150
H 0.5760735290 2.0768832090 -1.8246340700
H -0.5584232440 2.6448711980 -3.0624212560
H -2.8710041570 -1.4091158660 -1.5541672830
H 0.4271549430 -1.2307619210 -3.3373903120
H -2.6086297430 -1.7554969540 -3.2675124250
H -1.4764614640 -2.3675068380 -2.0716507100
H 0.4157341970 0.5153906650 -3.5906339230
H -0.6707292850 -0.5322666550 -4.5088498800
P -1.6570918040 1.0534287620 -1.5169767640
C -1.2775392800 -0.2715182720 -2.4805003210
C -2.1098619720 -1.5145438420 -2.3251535490
C -0.2131913100 -0.3663595460 -3.5295106810
C -0.4533153430 2.3781106670 -2.0116365240
