18
0 1
C 0.1592013160 2.4566460910 0.0000000000
O 1.2188531560 1.8761823660 0.0000000000
O -1.0253318810 1.8332270730 0.0000000000
H -0.8922640990 0.8580194750 0.0000000000
C 0.0038093430 3.9527751780 0.0000000000
H 0.9802303390 4.4242233980 0.0000000000
H -0.5621746500 4.2641268030 -0.8769544210
H -0.5621746500 4.2641268030 0.8769544210
H -0.6230595160 -4.1518993640 0.0000000000
H 0.9196306040 -4.0207425380 -0.8744123140
H 0.9196306040 -4.0207425380 0.8744123140
H 1.4718318620 -0.3930360530 0.0000000000
H 2.1600227910 -1.7817585460 0.8729206780
C 0.3562304880 -3.6857129030 0.0000000000
C 0.2690617770 -2.1905682820 0.0000000000
S -1.1733905750 -1.4295404230 0.0000000000
C 1.5785259040 -1.4721877340 0.0000000000
H 2.1600227910 -1.7817585460 -0.8729206780
