15
0 1
H 2.3065589950 -2.0578968030 -0.6495230130
H 3.3203143790 -1.4747125170 0.6764130500
H 2.5230711920 -0.3108302420 -0.3888258540
H 0.0700263290 -1.0199365440 0.3602303490
C 2.4224976400 -1.2775177840 0.0968402290
S 1.0286578420 -1.2837738960 1.2709384620
H 0.9439180390 1.1895403340 0.3198572850
H 0.0311092900 2.4681814190 -0.5234636070
H 1.0459743540 1.3485495270 -1.4458014250
H -2.7617869920 -0.0522592350 0.7120974930
H -2.2378530860 1.6393550110 0.7499878610
H -1.2769913850 0.3883464580 1.5765767370
C 0.3910205190 1.4429195870 -0.5830937460
S -0.9856207850 0.2913236320 -0.8239266890
C -1.8971678090 0.6066822620 0.7087340530
