12
0 1
H 0.3893323140 2.3440454870 -1.6818066360
H -1.1998744820 1.7591983820 -2.1825468420
H 0.1021874670 0.6058349130 -1.8686483700
P -1.1705847390 1.3419585580 1.3289226680
C -0.7484701020 1.4553388160 -0.1481612860
C -0.3435028920 1.5476729020 -1.5397217490
H 1.8044719500 0.0766849020 0.1244197480
H 2.8478980660 -1.3427211290 -0.0673459920
H 1.7753151550 -1.2243494830 1.3348019330
H -0.4448278380 -1.2910887220 -0.1694924080
C 1.8777606960 -0.9955258980 0.2781962270
S 0.6310512110 -1.8858628190 -0.7078760030
