17
0 1
N -0.7902170010 0.7778941320 2.2847277800
H -1.7322437220 0.6168180370 2.6155391980
H -0.8555026220 0.9918126630 1.2966623690
C -0.1683663130 1.8838217970 3.0127044300
H 0.8468834540 2.0289651680 2.6450049310
H -0.6934582430 2.8422462260 2.9317887050
H -0.0959131990 1.6276769520 4.0690337620
H -1.6315282990 -2.6870729810 -0.4255174840
H -2.1607100270 -0.9945509790 -0.3377212610
H -0.8279268800 -1.5682023460 0.6991901060
H 2.6261534000 -0.3466834900 -0.4402685790
H 1.4906903150 -0.0777611490 0.9180006050
H 2.3283215450 1.2966732270 0.1650118020
C -1.3038161310 -1.6595748620 -0.2724535550
S -0.1221966300 -1.3090136720 -1.6134506370
S 0.5309180850 0.5906126320 -1.2062788670
C 1.8816694100 0.3191759370 -0.0144629040
