16
0 1
H 1.9404862670 -0.2831152240 0.3000300580
H 2.7088639690 -1.7496683630 -0.3363375550
H 2.5169729040 -1.5499622150 1.4105135820
H -0.1925665520 -1.5118813010 1.2109097400
C 2.0643968760 -1.3523450090 0.4434425040
S 0.4679423560 -2.2162719100 0.2804649020
H -2.3459725440 0.2805714460 0.2636349570
H -2.4039370300 0.7370470890 -1.4525342260
H -1.7620658370 -0.8296360490 -0.9990610980
H 1.2996488050 1.2127249600 -1.7916520370
H 0.5231040360 -0.3574918960 -2.0931347880
C -1.8257315080 0.2149357590 -0.6857902820
C -0.4478292900 0.7956823220 -0.6079618980
S 0.1474367180 1.4621279240 0.7521210990
C 0.3479500030 0.6986981510 -1.8722764060
H -0.2199297220 1.1056719910 -2.7120308750
