18
0 1
C 0.1592013160 2.4566460910 0.0000000000
O 1.2188531560 1.8761823660 0.0000000000
O -1.0253318810 1.8332270730 0.0000000000
H -0.8922640990 0.8580194750 0.0000000000
C 0.0038093430 3.9527751780 0.0000000000
H 0.9802303390 4.4242233980 0.0000000000
H -0.5621746500 4.2641268030 -0.8769544210
H -0.5621746500 4.2641268030 0.8769544210
H -0.5949468680 -3.9231433740 0.0000000000
H 0.9477432520 -3.7919865480 -0.8744123140
H 0.9477432520 -3.7919865480 0.8744123140
H 1.4999445100 -0.1642800630 0.0000000000
H 2.1881354390 -1.5530025560 0.8729206780
C 0.3843431360 -3.4569569130 0.0000000000
C 0.2971744250 -1.9618122920 0.0000000000
S -1.1452779270 -1.2007844330 0.0000000000
C 1.6066385520 -1.2434317440 0.0000000000
H 2.1881354390 -1.5530025560 -0.8729206780
