16
0 1
H 0.0671929930 0.9717733360 0.0000000000
H 1.3230453480 2.4867834120 0.0000000000
S -0.0095528490 2.3404433530 0.0000000000
H 0.6213344260 -2.2741258000 -1.3031934240
H 0.2027804880 -0.7336268620 -2.0805064140
H 1.7229617370 -0.8871637810 -1.1975902800
H 1.7229617370 -0.8871637810 1.1975902800
H 0.6213344260 -2.2741258000 1.3031934240
H 0.2027804880 -0.7336268620 2.0805064140
H -1.6139590520 -2.0650593670 0.0000000000
H -1.8659670870 -0.5462370020 0.8827889050
C 0.6739193440 -1.1790776150 -1.2058754620
N 0.0214320390 -0.6972829480 0.0000000000
C 0.6739193440 -1.1790776150 1.2058754620
C -1.4032596440 -0.9849978820 0.0000000000
H -1.8659670870 -0.5462370020 -0.8827889050
