16
0 1
H 1.9404862670 -0.2831152240 0.3000300580
H 2.7088639690 -1.7496683630 -0.3363375550
H 2.5169729040 -1.5499622150 1.4105135820
H -0.1925665520 -1.5118813010 1.2109097400
C 2.0643968760 -1.3523450090 0.4434425040
S 0.4679423560 -2.2162719100 0.2804649020
H -3.1897605680 1.1018623390 0.4763836820
H -3.2477250540 1.5583379820 -1.2397855010
H -2.6058538600 -0.0083451560 -0.7863123730
H 0.4558607820 2.0340158530 -1.5789033120
H -0.3206839880 0.4637989970 -1.8803860630
C -2.6695195320 1.0362266520 -0.4730415570
C -1.2916173140 1.6169732150 -0.3952131730
S -0.6963513060 2.2834188170 0.9648698240
C -0.4958380200 1.5199890440 -1.6595276810
H -1.0637177460 1.9269628840 -2.4992821500
