9
0 1
H -0.5738853240 0.2317159360 -0.0098381340
Cl -1.3108533540 0.7244884260 -0.9479430520
S 1.0509209870 -0.0467331990 2.1648379410
P 0.5438991020 1.9622731860 2.5888785430
S -2.0770801700 -0.2181273740 2.9684416010
S 0.1970158690 -0.1406955430 5.2741203290
P -0.0575096170 1.8889876940 4.7572441080
P -1.6328921720 1.8355718480 3.1471075350
P -0.2389397070 -1.1419724660 3.4607385770
