25
0 1
C -2.3579099740 -0.5307631530 1.5138096910
H -2.4588881350 0.4310647810 2.0140641140
H -1.4356415000 -1.0123263080 1.8322439380
H -3.2036872900 -1.1446768480 1.8174747160
C -2.4351853830 -0.3119418000 0.0159270190
O -3.4135868770 0.1943318490 -0.5089147940
N -1.3525984040 -0.7291660710 -0.6884203180
H -0.5329276230 -1.0379593150 -0.1845887440
C -1.2650049230 -0.5632727690 -2.1234444720
H -2.2640938590 -0.6142959310 -2.5463743800
H -0.8317091330 0.4011266840 -2.4017529900
H -0.6533707160 -1.3576120240 -2.5462416590
H 1.3563134500 -0.5753341970 -1.7229969930
H 3.0060524660 -0.7107050820 -1.1100458240
H 2.1057686100 1.7141565830 -1.8488310240
H 1.6089397580 1.2098168080 1.9728149090
H 3.0319545400 1.5676607270 -0.3586462680
H -0.0877393760 0.8037171330 1.6953939860
H 0.9709875880 2.7833285360 0.2383763030
H -0.0137307500 1.5762183240 -0.5817341380
S 1.3896660000 -0.8297891660 0.6890991020
C 2.0358112620 -0.2537423360 -0.9369422490
C 2.1062599840 1.2705162010 -0.8533316860
C 0.9089671680 1.7266381230 -0.0211533900
C 0.8936156480 0.8569442550 1.2330482430
