11
0 1
H -0.0916933190 -0.0170741370 -1.0314738490
Cl 0.6432304760 -0.4462036890 -2.0460584230
H 0.8038274590 1.2829916590 2.7642173080
H 0.1518640950 1.7194473020 4.3676577730
H -0.0868422290 2.7996188100 2.9828133520
H -2.1395238420 -1.3080043770 3.2332830870
H -1.0673066180 -0.7202475610 4.5164202390
H -0.4050783370 -1.1361499270 2.9117235050
C -0.0175088530 1.7606634870 3.2941882080
S -1.5911762170 0.9702031330 2.8707536750
C -1.2542518640 -0.7141864350 3.4450948730
