10
0 1
H 0.4150907350 0.4488285990 0.0000000000
H 1.1280987340 2.2767048080 0.0000000000
S -0.0882307060 1.7130318490 0.0000000000
N 1.0276404830 -3.6628474470 0.0000000000
H 1.5200009970 -4.0042988910 0.8144489100
H 1.5200009970 -4.0042988910 -0.8144489100
C -0.3684374370 -4.1063634120 0.0000000000
H -0.8705952190 -3.7019566710 -0.8775379220
H -0.5008331750 -5.1925392480 0.0000000000
H -0.8705952190 -3.7019566710 0.8775379220
