18
0 1
C 2.5118935250 -1.3688008000 0.0148074310
O 1.7621630280 -1.9714812590 0.7444220990
O 2.2083859240 -0.1819016320 -0.5337285870
H 1.3154170670 0.0852313850 -0.2276818480
C 3.8811181870 -1.8385370420 -0.3908736480
H 4.0839034310 -2.8067712920 0.0529275090
H 3.9436933000 -1.9022049700 -1.4762839340
H 4.6280097810 -1.1152399900 -0.0660489080
H -3.9689648260 2.7162409320 -0.5718373450
H -3.2072027400 2.6128620800 1.0299850180
H -4.0251534310 1.1899995330 0.3291338070
H -1.4624086580 -1.4608620360 -0.5976665480
H -2.5483077330 -1.2532331870 0.8051272800
H -0.8684038340 -1.8202038580 1.0337779240
C -3.4248048610 2.0696818880 0.1152034180
S -1.8817322500 1.6156615060 -0.7367319010
S -0.8883347900 0.5091679960 0.6775635740
C -1.5249872990 -1.1799294940 0.4491549890
