17
0 1
C 2.5909018700 -0.0496886190 0.4396133820
H 1.9332318940 0.2719392570 -0.3385835730
C 3.3060900400 -0.4175117100 1.3258072740
H 3.9471557300 -0.7412145690 2.1071409570
H -0.0740991850 -1.6362190280 -0.6768981830
H -1.5487593330 -1.6830520220 -1.6523791760
H -1.7966109400 -1.9425961760 1.0002741820
H -2.1118127130 1.8532886740 0.0774907910
H -2.8936481180 -0.8421395160 0.1681993970
H -0.3999601890 2.0439280760 0.4717408140
H -1.9049301650 0.4477923660 2.0309243750
H -0.2896643690 -0.0788916220 1.5663518080
S -0.7186446480 0.5759570760 -1.4326804440
C -1.0272964950 -1.1449641380 -0.8654722180
C -1.8467767890 -1.0231899520 0.4165621790
C -1.2788439280 0.1705288540 1.1827321220
C -1.1663665430 1.3268070960 0.1889300940
