11
0 1
H -2.8928783370 1.3834413690 -2.4187540180
H -2.8836896580 0.1549431360 -3.7169078560
H -2.3380743830 -0.2831411260 -2.0686702020
C -2.3954642910 0.5024391720 -2.8151059020
O -1.0419850750 0.8659786700 -3.2365136660
C -0.2633821110 1.2722136170 -2.3072937660
N 0.4658791990 1.6354548960 -1.4882476840
P 0.4126460670 -0.5077998050 0.3574416580
F -0.9749561760 -0.8600414510 -0.3850277560
F 0.1653859340 -1.3756833610 1.6839503930
H -0.0355247030 0.7224566660 0.9161847490
