18
0 1
C 0.1592013160 2.4566460910 0.0000000000
O 1.2188531560 1.8761823660 0.0000000000
O -1.0253318810 1.8332270730 0.0000000000
H -0.8922640990 0.8580194750 0.0000000000
C 0.0038093430 3.9527751780 0.0000000000
H 0.9802303390 4.4242233980 0.0000000000
H -0.5621746500 4.2641268030 -0.8769544210
H -0.5621746500 4.2641268030 0.8769544210
H -0.5808905450 -3.8087653790 0.0000000000
H 0.9617995750 -3.6776085530 -0.8744123140
H 0.9617995750 -3.6776085530 0.8744123140
H 1.5140008330 -0.0499020680 0.0000000000
H 2.2021917620 -1.4386245610 0.8729206780
C 0.3983994590 -3.3425789180 0.0000000000
C 0.3112307480 -1.8474342970 0.0000000000
S -1.1312216040 -1.0864064380 0.0000000000
C 1.6206948750 -1.1290537490 0.0000000000
H 2.2021917620 -1.4386245610 -0.8729206780
