18
0 1
C 2.5118935250 -1.3688008000 0.0148074310
O 1.7621630280 -1.9714812590 0.7444220990
O 2.2083859240 -0.1819016320 -0.5337285870
H 1.3154170670 0.0852313850 -0.2276818480
C 3.8811181870 -1.8385370420 -0.3908736480
H 4.0839034310 -2.8067712920 0.0529275090
H 3.9436933000 -1.9022049700 -1.4762839340
H 4.6280097810 -1.1152399900 -0.0660489080
H -3.7590836960 2.6758660160 -0.6580511950
H -2.9973216100 2.5724871640 0.9437711680
H -3.8152723010 1.1496246170 0.2429199570
H -1.2525275280 -1.5012369520 -0.6838803980
H -2.3384266030 -1.2936081030 0.7189134300
H -0.6585227040 -1.8605787740 0.9475640740
C -3.2149237310 2.0293069720 0.0289895680
S -1.6718511200 1.5752865900 -0.8229457510
S -0.6784536600 0.4687930800 0.5913497240
C -1.3151061690 -1.2203044100 0.3629411390
