16
0 1
H 1.0155405080 -2.0643029460 -0.2634523160
H 1.4122134800 -3.5079079610 0.6833062710
H 2.2877670060 -1.9997820970 0.9783850910
H 0.0922749760 -0.7095980950 1.8326748910
C 1.3244239960 -2.4250380930 0.7127769290
S 0.0694148530 -2.0450842380 1.9792163620
H -2.8106311910 0.5145750330 0.6125420330
H -1.7600427450 -0.8126200180 0.0766248130
H -2.3865248160 0.3797879860 -1.1040002510
H 0.4298167020 2.7328579230 -2.3594893240
H -0.5849056790 1.3943361360 -2.9605471430
H 1.1519696320 1.4210361130 -3.3170721100
C -2.0292468550 0.2263831790 -0.0897279380
S -0.6106856410 1.3098121370 0.2669972370
S 0.8033134650 0.7050409500 -1.0874516900
C 0.3932369520 1.6694132290 -2.5760648470
