10
0 1
H 1.2177430300 0.7881433110 -0.0789657260
H 1.9062262850 2.1132993830 -1.3254727830
S 1.8416587550 1.9773473110 0.0070044220
H -2.1438995530 0.2347418790 1.1566669800
H -2.3947410650 0.3408553750 -0.6031016530
H -1.2519352050 1.4325047750 0.2013486900
C -1.6599095160 0.4277719790 0.1983829500
N -0.5231419750 -0.4824901050 -0.0188610920
N -0.7849298260 -1.6794832380 -0.0452389930
N -0.9092703960 -2.8002962170 -0.0880344810
