36
0 1
O 0.0434800000 -1.7697700000 -1.5990300000
C -0.0068100000 -0.8739000000 -0.7840600000
C -1.1771600000 -0.6726300000 0.1963100000
C 1.0832100000 0.1697500000 -0.5719600000
O -0.7345600000 -0.8547900000 1.5321100000
O -1.6340600000 0.6655900000 -0.0134700000
C -2.4194800000 -1.5235200000 -0.0610900000
H 0.7781200000 1.0837000000 -1.1166400000
O 2.3478600000 -0.3064400000 -0.9865900000
C 1.2609800000 0.4668300000 0.9413600000
C 0.6758300000 -0.6787800000 1.7627300000
C -3.0891600000 0.6620000000 -0.1268100000
H -2.4680000000 -2.3914800000 0.6052000000
H -2.4396000000 -1.8576000000 -1.1126700000
O -3.4966300000 -0.6468500000 0.2579800000
C 3.3112400000 0.3597800000 -0.1604800000
H 0.7951700000 1.4248900000 1.2206000000
O 2.6726500000 0.5085800000 1.1291000000
H 0.7849400000 -0.4937000000 2.8389700000
H 1.2265500000 -1.6038000000 1.5102800000
C -3.6665400000 1.6562400000 0.8626400000
C -3.4591700000 0.9625900000 -1.5766300000
C 4.5165200000 -0.5457000000 -0.0093200000
C 3.6595900000 1.7365700000 -0.7241800000
H -3.3289000000 2.6723700000 0.6204100000
H -4.7636500000 1.6298400000 0.8203400000
H -3.3380500000 1.3947400000 1.8756900000
H -3.0456200000 0.1969300000 -2.2466800000
H -3.0566200000 1.9394700000 -1.8763100000
H -4.5515100000 0.9790800000 -1.6892200000
H 5.0030500000 -0.6919400000 -0.9824100000
H 4.1981000000 -1.5187000000 0.3839900000
H 5.2383600000 -0.0939800000 0.6832100000
H 4.1288300000 1.6343400000 -1.7119600000
H 2.7589300000 2.3576000000 -0.8251300000
H 4.3556300000 2.2523300000 -0.0495600000
