29
0 1
H 1.4586500000 -0.5265900000 1.5320400000
C 1.6648600000 -1.6008800000 1.4720100000
C 2.0668700000 -2.0185900000 0.0779000000
H 0.7654000000 -2.1457200000 1.7918800000
H 2.4882300000 -1.8624200000 2.1438900000
O 1.2615300000 -1.7174200000 -0.9998200000
O 3.0621900000 -2.6637700000 -0.1555500000
C 0.1401700000 -0.8079400000 -1.0615400000
C 0.5709900000 0.6368700000 -1.2405700000
C -0.9314600000 -1.0180500000 0.0073900000
H -0.3265200000 -1.0881200000 -2.0199800000
O 1.0838300000 1.1604300000 0.0031800000
H 1.3506700000 0.7033600000 -2.0130600000
H -0.2895300000 1.2402900000 -1.5636900000
O -2.1358600000 -0.4371500000 -0.5400700000
H -1.0894600000 -2.0922200000 0.1860800000
H -0.7035400000 -0.5308800000 0.9614100000
C 1.2810000000 2.5149700000 0.0297200000
C -3.1652800000 -0.2956100000 0.3502800000
C 1.8339400000 2.9402000000 1.3633800000
O 1.0344500000 3.2395200000 -0.9095700000
C -4.3533200000 0.3440600000 -0.3156900000
O -3.0934100000 -0.6440200000 1.5093700000
H 1.9504300000 4.0277900000 1.3792100000
H 2.8072000000 2.4591900000 1.5357000000
H 1.1630800000 2.6221300000 2.1735400000
H -4.6391100000 -0.2219300000 -1.2126300000
H -4.0950000000 1.3618700000 -0.6411900000
H -5.1889600000 0.3823000000 0.3892700000
