36
0 1
O 0.1590700000 -1.7849600000 0.4796800000
C 0.1043500000 -0.6763800000 -0.0099000000
C -1.1187900000 0.2597700000 0.1875500000
C 1.1947300000 -0.0433000000 -0.8666000000
O -0.7218600000 1.6348400000 0.0653100000
O -2.0282600000 -0.0037800000 -0.8442900000
C -1.9153300000 -0.0081800000 1.4746400000
H 0.7605700000 0.1468200000 -1.8638900000
O 2.3678700000 -0.8106700000 -0.9880600000
C 1.6597700000 1.2670900000 -0.1999500000
C 0.5537200000 1.8779300000 0.6648100000
C -3.3633800000 -0.2050300000 -0.2700000000
H -1.7643600000 -1.0487100000 1.8073100000
H -1.6541700000 0.6880500000 2.2811900000
O -3.2565400000 0.2491600000 1.0733500000
C 3.3685200000 -0.2800900000 -0.0790000000
H 2.0096100000 1.9794000000 -0.9696600000
O 2.7362200000 0.8129200000 0.6126900000
H 0.6488100000 2.9668900000 0.7531300000
H 0.6220000000 1.4425300000 1.6803500000
C -3.6954500000 -1.6914200000 -0.3470900000
C -4.3493500000 0.6796100000 -1.0058300000
C 4.5507800000 0.2092000000 -0.9065000000
C 3.7432500000 -1.3331400000 0.9478000000
H -3.6935600000 -2.0231900000 -1.3938300000
H -4.6893200000 -1.8753200000 0.0826800000
H -2.9510000000 -2.2836100000 0.2011700000
H -4.3958700000 0.3935000000 -2.0644300000
H -4.0321200000 1.7262000000 -0.9253600000
H -5.3496400000 0.5682900000 -0.5664300000
H 4.2351200000 1.0096500000 -1.5889200000
H 4.9561800000 -0.6168200000 -1.5057800000
H 5.3416600000 0.5923900000 -0.2477300000
H 4.2274300000 -2.1832200000 0.4496100000
H 2.8396700000 -1.6884300000 1.4572400000
H 4.4400800000 -0.9107300000 1.6843500000
