42
0 1
H 3.5132600000 -0.4848100000 1.5881100000
C 3.9058500000 0.4323500000 1.1177700000
C 4.0025600000 1.5612800000 2.1218300000
O 3.0104500000 0.8426700000 0.0583300000
H 4.8920100000 0.2079500000 0.6772800000
H 4.3627300000 2.4813600000 1.6419900000
H 3.0210000000 1.7646200000 2.5711200000
H 4.7033700000 1.2891800000 2.9243500000
P 2.2525200000 -0.2211900000 -0.9022600000
C 3.5496100000 -1.2317400000 -1.6606100000
S 1.2776500000 -1.6001000000 0.3589600000
O 1.3732600000 0.5132500000 -1.8488500000
H 3.0800900000 -1.9688300000 -2.3233200000
H 4.1917700000 -0.5659000000 -2.2534200000
H 4.1527500000 -1.7502700000 -0.9031600000
C -0.1574300000 -0.5383000000 0.8233500000
C -1.2921000000 -0.6063700000 -0.2019100000
H 0.1937400000 0.4921800000 0.9616300000
H -0.4879500000 -0.9140200000 1.8007800000
N -2.4363400000 0.1925700000 0.2419700000
H -0.9117700000 -0.2639000000 -1.1760900000
H -1.5737600000 -1.6618800000 -0.3403000000
C -2.6478300000 1.3997500000 -0.5832600000
C -3.6400600000 -0.6081200000 0.5362500000
C -1.4125100000 2.3040300000 -0.5253900000
C -3.8734500000 2.1980300000 -0.1354900000
H -2.7999700000 1.1121700000 -1.6493100000
C -4.2579100000 -1.2964200000 -0.6924600000
C -3.3694800000 -1.6110200000 1.6594200000
H -4.3822400000 0.1000900000 0.9311400000
H -1.5783800000 3.1951000000 -1.1480400000
H -0.5042800000 1.8132400000 -0.8999300000
H -1.2382600000 2.6340700000 0.5106800000
H -3.8998100000 3.1512400000 -0.6812400000
H -4.8230600000 1.6825700000 -0.3326900000
H -3.8137000000 2.4239500000 0.9405800000
H -4.4876600000 -0.5687900000 -1.4842000000
H -3.5789800000 -2.0518800000 -1.1160100000
H -5.1939500000 -1.8067900000 -0.4215500000
H -2.6634000000 -2.3976400000 1.3531600000
H -4.3045500000 -2.1102400000 1.9515100000
H -2.9579100000 -1.0994600000 2.5407900000
