42
0 1
H -2.7935800000 2.3845200000 0.4065900000
C -1.9647000000 1.9993900000 -0.2051800000
C -1.5955900000 2.9488800000 -1.3228200000
O -2.3793800000 0.7390900000 -0.7999700000
H -1.1076900000 1.8138600000 0.4632100000
H -2.4514500000 3.1193600000 -1.9901700000
H -0.7634200000 2.5513300000 -1.9211400000
H -1.2860200000 3.9158500000 -0.9009300000
P -2.7771400000 -0.4687400000 0.2106800000
C -3.5584400000 -1.5970800000 -0.9668100000
S -0.9816500000 -1.3415200000 0.8779800000
O -3.6000300000 -0.0960600000 1.3908500000
H -2.8967500000 -1.8392000000 -1.8075000000
H -4.4678600000 -1.1127900000 -1.3474900000
H -3.8258000000 -2.5140900000 -0.4281900000
C -0.0044300000 -1.5024800000 -0.6734900000
C 0.9840900000 -0.3597100000 -0.9255200000
H -0.6965000000 -1.6063200000 -1.5219900000
H 0.5406100000 -2.4497200000 -0.5611300000
N 2.0078400000 -0.2323700000 0.0963000000
H 1.4477100000 -0.5584400000 -1.9071900000
H 0.4214600000 0.5816700000 -1.0517300000
C 3.3873600000 -0.5247700000 -0.3128800000
C 1.7873000000 0.8478100000 1.0696900000
C 3.9073400000 0.2524200000 -1.5387400000
C 3.5729300000 -2.0312700000 -0.5286700000
H 4.0153200000 -0.2385200000 0.5447000000
C 2.1983200000 2.2537200000 0.5984800000
C 2.4058100000 0.5169000000 2.4287300000
H 0.6969600000 0.8523200000 1.2243400000
H 3.3907200000 -0.0515300000 -2.4619300000
H 4.9775200000 0.0458300000 -1.6886000000
H 3.7833200000 1.3358600000 -1.4212300000
H 2.9689800000 -2.3842800000 -1.3796300000
H 4.6231000000 -2.2700000000 -0.7531600000
H 3.2650200000 -2.5900000000 0.3652400000
H 1.7681200000 2.4895900000 -0.3865500000
H 3.2918100000 2.3515900000 0.5284400000
H 1.8443700000 3.0146300000 1.3104100000
H 3.5059200000 0.5229600000 2.3975300000
H 2.0726000000 -0.4734000000 2.7669900000
H 2.0996900000 1.2638000000 3.1752700000
