44
0 1
O -0.0093700000 2.1801700000 1.0743000000
C -0.2315600000 0.9961400000 0.8305600000
C 0.8698800000 -0.0370700000 1.0432600000
C -1.5782800000 0.5796700000 0.3199500000
C 1.3795800000 -0.6649400000 -0.3050600000
C 0.5017900000 -1.0919200000 2.0966700000
H 1.6975100000 0.5644600000 1.4490900000
C -2.6122700000 1.5311200000 0.3435200000
C -1.8580800000 -0.6926400000 -0.2034700000
N 2.7978000000 -0.5155800000 -0.5777800000
H 0.8388300000 -0.2214700000 -1.1555600000
H 1.1497500000 -1.7447300000 -0.3057100000
C 3.6645300000 -1.1641300000 0.4006900000
C 3.1996100000 0.8631300000 -0.8515000000
H 3.2992300000 -2.1931100000 0.5504100000
H 3.6240300000 -0.6565900000 1.3937000000
C 5.1145500000 -1.1773400000 -0.0809500000
H 2.5013700000 1.2786200000 -1.5949000000
H 3.1193700000 1.5059600000 0.0551700000
C 4.6339400000 0.9177000000 -1.3733700000
H 5.7501500000 -1.6471400000 0.6857200000
H 5.1801700000 -1.7971200000 -0.9903500000
C 5.5927200000 0.2424600000 -0.3908100000
H 4.9206300000 1.9671900000 -1.5419300000
H 4.6784400000 0.4021900000 -2.3469600000
H 6.6177300000 0.2293200000 -0.7918900000
H 5.6247800000 0.8275300000 0.5456800000
H -0.3244500000 -1.7374800000 1.7704600000
H 1.3702800000 -1.7341400000 2.3024200000
H 0.2020100000 -0.6188100000 3.0430800000
H -2.3832900000 2.5225700000 0.7370300000
C -3.8807900000 1.2163300000 -0.1271500000
H -1.0790500000 -1.4521800000 -0.2578000000
C -3.1288000000 -0.9993300000 -0.6862200000
H -4.6724100000 1.9695400000 -0.0974700000
C -4.1637100000 -0.0552300000 -0.6517500000
H -3.3229900000 -1.9909500000 -1.1026400000
C -5.5518700000 -0.4084300000 -1.1180500000
C -6.4252300000 -0.9498000000 0.0240300000
H -5.4900200000 -1.1605800000 -1.9201000000
H -6.0304700000 0.4833400000 -1.5525900000
H -7.4339000000 -1.1991800000 -0.3353800000
H -5.9817300000 -1.8567600000 0.4596100000
H -6.5216700000 -0.2071000000 0.8290200000
