38
0 1
O -2.6684100000 -1.4439400000 -2.2665200000
N -1.8596000000 -1.1603900000 -1.3916800000
N -2.3937900000 -0.9031400000 -0.1744000000
C -3.8298000000 -0.9615300000 0.0719000000
C -1.4837300000 -0.6021300000 0.9113900000
C -4.5937200000 0.2098400000 -0.5330900000
H -4.2118800000 -1.8897300000 -0.3823400000
H -3.9501400000 -0.9950600000 1.1604300000
Cl -4.0451600000 1.7885300000 0.1255400000
H -4.4692800000 0.2540900000 -1.6193800000
H -5.6591300000 0.1094400000 -0.2922300000
N -0.1887900000 -0.5136700000 0.5259200000
O -1.9107100000 -0.4708000000 2.0478600000
C 0.8389500000 -0.0751900000 1.4672200000
H -0.0128400000 -0.4862700000 -0.4761400000
P 2.3775300000 0.4268900000 0.5986200000
C 1.1694100000 -1.1208600000 2.5373800000
H 0.4952600000 0.8476900000 1.9665600000
O 1.7535600000 1.1233700000 -0.7176300000
O 3.1158400000 -0.9086500000 0.0756500000
O 3.2976900000 1.2312800000 1.4290200000
C 2.6343800000 1.9299800000 -1.5607400000
C 2.5151000000 -1.8212000000 -0.8787200000
C 2.5728300000 3.3869900000 -1.1549900000
H 2.2692900000 1.7729800000 -2.5852800000
H 3.6614100000 1.5385400000 -1.4923400000
C 3.6002600000 -2.7383300000 -1.3987200000
H 2.0561000000 -1.2428800000 -1.6972000000
H 1.7203700000 -2.3944100000 -0.3740000000
H 3.1958000000 3.9875700000 -1.8343700000
H 1.5414600000 3.7616500000 -1.2091700000
H 2.9467900000 3.5137300000 -0.1308400000
H 3.1718200000 -3.4534100000 -2.1155900000
H 4.3862100000 -2.1631800000 -1.9065900000
H 4.0593300000 -3.3025900000 -0.5759000000
H 1.5210600000 -2.0557400000 2.0807600000
H 0.2740000000 -1.3276300000 3.1357400000
H 1.9586000000 -0.7383400000 3.1985900000
