44
0 1
O 0.5893500000 3.0009600000 -0.1127500000
C 0.4901000000 1.8109500000 0.1695500000
C -0.8412600000 1.2354100000 0.6512100000
C 1.6632100000 0.8937700000 0.0041200000
C -1.5523200000 0.6055400000 -0.5721600000
C -1.7115600000 2.2978900000 1.3148100000
H -0.6274000000 0.4339400000 1.3758000000
C 1.6328900000 -0.4725400000 0.3270800000
C 2.8552500000 1.4310100000 -0.5109100000
N -2.8053900000 -0.0412700000 -0.2264400000
H -1.7699900000 1.4171900000 -1.2847400000
H -0.8574100000 -0.1005300000 -1.0829000000
C -3.6670100000 -0.2901600000 -1.3784000000
C -2.6066600000 -1.2584500000 0.5656100000
H -3.2954300000 -1.1460600000 -1.9884900000
H -3.6311900000 0.5922100000 -2.0332200000
C -5.1100200000 -0.5489800000 -0.9071800000
H -1.7661100000 -1.8652600000 0.1523300000
H -2.3155000000 -0.9630500000 1.5870200000
C -3.8841600000 -2.1148800000 0.6181200000
H -5.6628300000 0.4006600000 -0.8577600000
H -5.6212000000 -1.1805400000 -1.6510600000
C -5.1223500000 -1.2316200000 0.4733500000
H -3.9039400000 -2.6867100000 1.5572400000
H -3.8740200000 -2.8556900000 -0.1978200000
H -6.0418800000 -1.8207900000 0.6047800000
H -5.1153600000 -0.4685500000 1.2668400000
H -1.8561000000 3.1499900000 0.6374800000
H -2.6929700000 1.8722300000 1.5610200000
H -1.2419600000 2.6775500000 2.2327000000
H 0.7239300000 -0.9270100000 0.7222000000
C 2.7592800000 -1.2712700000 0.1409000000
H 2.8684800000 2.4918300000 -0.7653400000
C 3.9758200000 0.6305400000 -0.6926300000
H 2.7155500000 -2.3337000000 0.3932500000
C 3.9496800000 -0.7360400000 -0.3695300000
H 4.8930600000 1.0653700000 -1.0980700000
C 5.1817500000 -1.5895900000 -0.5197900000
C 6.0664400000 -1.5537000000 0.7357400000
H 5.7646500000 -1.2421300000 -1.3873300000
H 4.8854900000 -2.6293100000 -0.7296000000
H 6.9606300000 -2.1799900000 0.6055600000
H 6.3950200000 -0.5274300000 0.9540600000
H 5.5150500000 -1.9202300000 1.6135700000
