41
0 1
H -2.3913700000 4.9362400000 0.3048800000
O -1.6315400000 4.8482000000 -0.3012500000
C -1.1004000000 3.5931200000 -0.1878300000
C -1.7586200000 2.7134800000 0.8832500000
O -0.1606600000 3.2724500000 -0.8719200000
C -1.4130000000 1.2698200000 0.7701600000
H -2.8521900000 2.8457200000 0.8476200000
H -1.4340100000 3.1286600000 1.8560100000
C -2.2972400000 0.2190400000 0.3331500000
C -0.1848000000 0.7144000000 1.0426100000
C -3.6287400000 0.2085000000 -0.0886600000
C -1.5622600000 -0.9927300000 0.3861700000
N -0.2472400000 -0.6704600000 0.7820400000
C 0.9925200000 1.3916500000 1.6570600000
H -4.2265900000 1.1186900000 -0.1568500000
C -4.2122200000 -1.0118500000 -0.4461600000
C -2.1353100000 -2.2080700000 0.0289700000
C 0.8036100000 -1.6118800000 0.7976900000
H 1.6738200000 1.8176100000 0.9071300000
H 0.6410400000 2.2226400000 2.2855200000
H 1.5744500000 0.7099300000 2.2905800000
O -5.5229000000 -0.9458400000 -0.8430300000
C -3.4698900000 -2.2083700000 -0.3877200000
H -1.5709900000 -3.1357800000 0.0928400000
C 2.1477600000 -1.1395800000 0.3644800000
O 0.5901000000 -2.7871900000 1.0697300000
C -6.1546400000 -2.1594600000 -1.2316700000
H -3.9307800000 -3.1565000000 -0.6581900000
C 3.2813400000 -1.7746100000 0.8927900000
C 2.3048000000 -0.1799900000 -0.6471100000
H -5.6464500000 -2.6231200000 -2.0941100000
H -7.1771500000 -1.8868100000 -1.5170700000
H -6.1892100000 -2.8834900000 -0.3999700000
H 3.1462700000 -2.5452100000 1.6527800000
C 4.5549600000 -1.4320700000 0.4528900000
H 1.4298500000 0.3054100000 -1.0830400000
C 3.5738600000 0.1534700000 -1.1137600000
H 5.4411900000 -1.9079900000 0.8716900000
C 4.6910200000 -0.4675000000 -0.5508100000
H 3.7003700000 0.8892200000 -1.9073300000
Cl 6.2791700000 -0.0416100000 -1.1134200000
