15
0 1
C -1.3538000000 -0.0583345000 -0.0196610000
C -0.8327960000 1.1910900000 0.0532724000
C 0.6303150000 1.3805400000 -0.0064814000
C 0.8743140000 -0.9365150000 -0.0027856400
H -2.8924500000 -1.1280500000 0.6251080000
H -3.3089200000 0.3535380000 0.0072235300
H -1.5091300000 2.0400700000 0.0224428000
H 1.3597900000 -2.8545100000 0.5074550000
H 2.6328500000 -1.8519600000 -0.0022121000
H -0.8444250000 -1.9783200000 -0.4244010000
N -2.6814700000 -0.4409930000 -0.0955493000
N 1.4296200000 0.2172510000 0.0419629000
N 1.6502600000 -2.0857200000 -0.0828890000
N -0.4713960000 -1.1479700000 0.0328107000
O 1.1456200000 2.5200700000 -0.0195037000
