12
0 1
H 0.0017388400 -2.1822700000 0.8285960000
H -0.8046200000 -1.2768800000 -0.1425400000
H 1.3083200000 -0.7420620000 0.0370440000
H 2.3707000000 -0.0799396000 -0.7975600000
H 0.7978200000 1.2233200000 0.1439490000
H 0.1246010000 2.3489100000 -0.6692710000
H -1.3058500000 0.7270040000 -0.0868931000
H -2.5143100000 0.1623500000 0.6826600000
O 0.0038380800 -1.8361100000 -0.0973252000
O 1.9827200000 0.0012078600 0.1011590000
O 0.0068945100 1.8225500000 0.1028110000
O -1.9907500000 -0.0101929000 -0.1061430000
