21
0 1
C 2.1110700000 0.1166780000 -0.9012950000
C 1.7012300000 -0.2515630000 0.5767710000
C -0.7468670000 -0.2143660000 -0.2149290000
C -1.7103900000 0.9810450000 -0.0511103000
C -1.3734800000 -1.5621600000 0.1337590000
H -0.0786960000 1.8854400000 0.0466781000
H -3.2576300000 -1.1514900000 -0.5706020000
H -0.6762720000 -2.3869800000 -0.1857070000
H -1.6104700000 -1.6844000000 1.2092900000
H -0.4307000000 -0.2991610000 -1.3291100000
H 1.6985400000 -0.7895790000 -1.3881900000
H 1.7720500000 1.1799900000 -1.0838600000
H 3.9476000000 1.0507600000 -0.6098040000
H 4.0602200000 -0.5165230000 -0.6435970000
H -0.1603290000 0.2408540000 1.5561500000
N 3.5951100000 0.1955320000 -1.0997400000
N 0.3472780000 0.1552570000 0.6868070000
O -2.5085200000 -1.7606500000 -0.6522580000
O 2.3770500000 -0.6792280000 1.5294400000
O -2.9043800000 0.9910710000 0.0254275000
O -1.0579500000 2.1485300000 0.1761510000
