21
0 1
H -1.8861300000 -2.9624300000 0.6620130000
H 1.1532600000 -2.2712800000 -1.4843600000
H -0.0140157000 -2.0737500000 -0.5126320000
H -2.6170500000 0.4251510000 0.1223690000
H -3.8811700000 -0.3494030000 -0.2996980000
H -2.1308000000 -1.5521300000 -0.0460753000
H -0.9892370000 2.5453700000 0.0413189000
H 2.5252600000 0.4476100000 -0.1742490000
H -2.2079500000 2.2727600000 0.9804380000
H 2.2040300000 -1.4129200000 0.6796400000
H 2.9728200000 -1.0578600000 2.1315300000
H 1.1432000000 3.4171000000 -0.4527320000
H 1.1718100000 1.9083500000 -0.0096363600
H 1.4014100000 0.0411160000 -1.1276700000
O -1.5925100000 -2.3949600000 -0.0452088000
O 2.0720000000 0.7745670000 -1.0190400000
O -3.1458300000 -0.4193260000 0.3309110000
O 3.0835800000 -1.0403800000 1.1085200000
O 0.8914230000 -1.7929600000 -0.6951910000
O -1.9381900000 2.1287500000 0.0183559000
O 0.7738430000 2.8221000000 0.2378740000
