11
0 1
C 0.7543650000 0.2141040000 0.0365687000
C -0.7246840000 -0.2431560000 -0.0210054000
H 2.5380800000 -0.6423850000 -0.0968579000
H 1.1874600000 -1.7682400000 0.0609420000
H 0.4260600000 2.0745900000 0.3536560000
H -2.6212700000 0.4964240000 -0.1421300000
H -1.4078000000 1.7145700000 -0.2839650000
N 1.5576200000 -0.8492570000 -0.1672340000
N 1.1553100000 1.4208300000 0.1026630000
N -1.6177000000 0.7751750000 -0.1038070000
O -0.9959010000 -1.3909800000 0.1492020000
