18
0 1
H 1.9942700000 1.1192300000 0.0113503000
H 0.0717952000 2.2042700000 -0.0158819000
H -1.0565600000 2.9466500000 -0.7356000000
H -3.1277100000 0.4767580000 0.9456700000
H -2.0351800000 1.1546100000 0.0427495000
H 0.9229840000 -2.8134000000 0.9490760000
H 1.9221100000 2.3670800000 0.8586600000
H -0.0276614000 -2.3132800000 -0.0835872000
H -2.0245400000 -2.3399200000 -0.9505180000
H -1.9287900000 -1.1246500000 0.0484138000
H 1.9570600000 -1.1787900000 -0.0177277000
H 3.2585100000 -0.5957590000 -0.6635100000
O -2.7674200000 0.4830440000 -0.0075847300
O -1.6450000000 -2.0657100000 -0.0399964000
O -0.9122070000 2.4428800000 0.0388685000
O 0.9352250000 -2.4547500000 0.0086436600
O 1.7701300000 2.0670300000 -0.0916149000
O 2.6284800000 -0.4603370000 0.0430470000
