15
0 1
C 1.3020600000 0.7538750000 0.0796046000
C -0.9536290000 0.7097100000 0.0424128000
C -0.9651020000 -0.7181880000 -0.0004285180
C 1.3296800000 -0.6994300000 0.0313664000
H 2.4750500000 2.3368700000 -0.4028870000
H 3.2766700000 0.8019170000 -0.3954020000
H 2.3812500000 -2.3545600000 -0.2069770000
H 3.0446800000 -1.2491100000 0.8501530000
N 2.5285000000 1.3896500000 -0.0243649000
N 0.1817610000 1.4284500000 -0.0191953000
N -2.1954600000 1.1230700000 0.0982623000
N -2.1830500000 -1.1710500000 -0.1022160000
N 0.2109880000 -1.3900300000 0.0173575000
N 2.5792500000 -1.3524400000 -0.0432653000
O -2.9137000000 -0.0005479250 -0.0310829000
