8
0 1
C -0.8784900000 1.0680700000 0.0243399000
C -1.5140300000 -1.1086800000 0.0460535000
H -2.4478200000 -1.6290100000 0.1883770000
N -1.7862500000 0.2564800000 0.0397253000
N 2.8363700000 -0.5433910000 -0.0542329000
N 1.9849300000 0.1424490000 0.1523580000
O -0.1240480000 1.9656700000 -0.0875687000
O -0.4312530000 -1.6051800000 -0.1093930000
