8
0 1
C 0.0093668900 -0.5391330000 0.2149870000
C 0.0045859200 0.9541420000 0.1472250000
N 2.2566300000 -0.6701160000 -0.0208901000
N 1.2185300000 -1.1288500000 0.0250348000
N -1.2399900000 -1.1770100000 -0.1332580000
N -2.2036500000 -0.6429050000 -0.0489333000
O -1.2027600000 1.4002100000 0.0386244000
O 1.1647200000 1.4550500000 -0.1544930000
