10
0 1
C 0.0508923000 0.7285980000 -0.0039604500
C -0.7812310000 -0.5718650000 -0.0003611790
H 1.4351900000 -1.2629000000 -0.0221163000
H 1.9714200000 1.4421700000 0.0184513000
H -2.1132000000 0.6715680000 0.0059163900
N 1.3806800000 0.6100810000 0.0400654000
O 2.1175400000 -0.5529470000 -0.0017681500
O -0.5710420000 1.7884400000 -0.0368021000
O -2.0677600000 -0.3063640000 0.0355429000
O -0.3007540000 -1.6868500000 -0.0290701000
