18
0 1
C 1.5241500000 -2.2035800000 0.1803610000
C -0.4165790000 -0.7752710000 -0.0381684000
C -2.4820500000 -1.2274000000 -0.1211510000
C -1.0845300000 0.4329060000 0.0828295000
C -0.2866690000 1.7236700000 0.0419695000
C 1.7712800000 0.2321910000 -0.0559965000
H 1.7158700000 2.2741100000 -0.1611300000
H -3.2279700000 0.7474440000 -0.0412505000
H -3.3854800000 -1.8032200000 -0.2099810000
H 2.1894600000 -2.2867800000 -0.6558560000
H 0.7335080000 -2.9760100000 0.1454740000
H 2.1055700000 -2.2928600000 1.1243800000
N 0.9302670000 -0.8607220000 0.0939749000
N -1.2869900000 -1.7882900000 -0.1651700000
N -2.4280100000 0.1302620000 0.1106700000
N 1.0726000000 1.4898100000 -0.1214830000
O -0.7377860000 2.8444500000 0.0936696000
O 2.9503400000 0.2111460000 -0.1145010000
