35
0 1
C -3.0869500000 -0.3274480000 0.3949770000
C 2.7251900000 -1.0284500000 -0.8078170000
C 1.6836700000 -1.8087500000 0.0171471000
C 0.8585840000 -1.2329700000 1.1454200000
C 3.8373200000 -0.4169580000 0.0772912000
C -0.1207880000 -0.1095840000 0.5988530000
C -3.3349600000 1.1327400000 -0.1556880000
C -2.1438600000 -0.9560000000 -0.6242060000
C 0.7832720000 1.0587100000 0.0785350000
H 0.8749620000 -2.2380200000 -0.5964140000
H 2.5288100000 1.6134800000 0.5325080000
H 5.0110600000 1.3814700000 0.2246320000
H 3.9296100000 1.3500800000 -1.1211600000
H 3.7454600000 -0.6765360000 1.1317400000
H 4.8250700000 -0.8505820000 -0.1631290000
H 2.2969700000 -0.2541840000 -1.5969100000
H 3.2564300000 -1.8096600000 -1.4435200000
H 2.2897200000 -2.5528300000 0.4107630000
H 0.0691672000 -1.9743800000 1.4966100000
H -0.6253470000 0.2453630000 1.4404100000
H -0.4300900000 -0.8227040000 -1.3658000000
H -1.9116000000 1.5293700000 -1.3058600000
H -3.8275200000 1.6604200000 0.6624080000
H -3.8814100000 1.0469100000 -1.0448600000
H -4.0685600000 -0.7799610000 0.2147670000
H -3.4919100000 -0.0805115000 2.4263700000
H -2.4425600000 -1.3571700000 2.0225300000
H 1.4148700000 -0.7574560000 2.0021000000
N -2.6350000000 -0.3411990000 1.8218100000
N -0.8716290000 -0.6545320000 -0.4845090000
N 4.0194400000 1.0571500000 -0.0864290000
O 0.4761150000 1.6547800000 -0.9385770000
O -2.4988100000 -1.4971300000 -1.6431700000
O -2.1422600000 1.8447600000 -0.4521220000
O 1.6197400000 1.3762400000 0.9050790000
