23
0 1
C -3.3152000000 -0.1058150000 -0.3293060000
C -2.6117500000 -0.8667150000 0.7973410000
C -0.2832140000 0.0530644000 0.4761980000
C 1.1242400000 -0.2066940000 0.1084990000
C 1.6833800000 -1.4967100000 0.1031210000
C 3.0433400000 -1.6448500000 -0.1368100000
C 3.8590200000 -0.5545970000 -0.3997570000
C 3.3307300000 0.7106830000 -0.3838910000
C 1.9510000000 0.8914480000 -0.0571886000
H 0.6301370000 2.1255100000 0.3318190000
H 3.8669100000 1.6092400000 -0.5992090000
H 4.9236200000 -0.6626530000 -0.6935620000
H 3.4939400000 -2.6719700000 -0.0735357000
H -2.6873800000 -0.4614700000 1.7987300000
H -0.9785640000 -1.6665400000 -0.2653950000
H -2.9366200000 -1.9257100000 0.7490310000
H -2.1738800000 1.2401100000 0.1447530000
H 1.0570400000 -2.3365200000 0.4404340000
N -1.1557000000 -0.9579190000 0.4550620000
O -0.6564010000 1.2236000000 0.8141990000
O -3.0073100000 1.1650200000 -0.3908750000
O -4.0661500000 -0.6723230000 -1.1283700000
O 1.5055300000 2.1307700000 -0.0559219000
