29
0 1
C 0.5131800000 1.3511300000 -0.3301940000
C -0.8881740000 1.7572800000 0.0403014000
C 1.4002800000 1.0892500000 0.9389290000
C 2.7316900000 0.4375180000 0.4946890000
C 2.5144300000 -1.0246900000 0.1507650000
C -1.6301300000 -0.6047200000 0.6427110000
C -1.8769100000 -1.3089100000 -0.7008930000
C -2.6016300000 -1.1460200000 1.7366300000
H -0.0857349000 -1.9422700000 -0.6242260000
H -3.6330500000 -0.9428950000 1.3961800000
H -2.4061700000 -0.6000240000 2.6876900000
H -2.4718600000 -2.2258500000 1.8830600000
H -0.5758590000 -0.8602960000 0.8988310000
H -2.6912400000 1.2126600000 0.4645200000
H 3.5594000000 -2.5498100000 -0.2298850000
H 3.0537700000 0.9664460000 -0.4048400000
H 3.5080000000 0.5729500000 1.2622100000
H 1.5830300000 2.0424900000 1.4566100000
H 0.8230230000 0.4709370000 1.6617700000
H 0.3521190000 0.3562360000 -0.7565520000
H 0.5475620000 2.3635800000 -2.0660800000
H 0.9636920000 3.2380100000 -0.7664770000
N 1.1229800000 2.3389200000 -1.2111100000
N -1.7873100000 0.8398030000 0.5529410000
O -1.2431300000 2.9613400000 -0.0572470000
O 1.4787300000 -1.5261300000 0.0460635000
O 3.7061800000 -1.6486900000 -0.0249774000
O -2.9329000000 -1.2110000000 -1.2929300000
O -0.8654910000 -2.0328000000 -1.1825600000
