8
0 1
C 1.2529900000 0.1346380000 0.0002667280
H -2.7970300000 1.2339000000 0.0148801000
H 1.3357700000 -1.7280200000 0.1578320000
H 0.1698460000 -0.0532029000 0.0275576000
N -2.6111900000 0.2744410000 0.4405220000
O -2.2234700000 -0.4795480000 -0.4216800000
O 1.9697800000 -0.9960040000 0.1315530000
O 1.7601700000 1.2028500000 -0.1205630000
