15
0 1
C 0.9748160000 1.5641500000 0.1023100000
C -0.5074830000 -0.3023030000 -0.8343630000
C -1.7516700000 -0.1338760000 -0.0047683000
C 1.7673500000 -0.7616880000 -0.0582194000
H 0.7582700000 1.7995300000 1.1386500000
H 2.0247300000 1.7958400000 -0.0835183000
H 0.3192190000 2.1816700000 -0.5373190000
H -0.5782630000 0.1522490000 -1.7917900000
H -0.3289240000 -1.3873300000 -0.9270930000
H -0.5784690000 -0.3974660000 1.3488800000
H 1.4467700000 -1.8143300000 -0.2749390000
N 0.7628530000 0.1414430000 -0.2043830000
O -1.5398900000 -0.3462030000 1.2719900000
O -2.8382400000 0.0848504000 -0.4727400000
O 2.9654500000 -0.4283920000 0.1167530000
