25
0 1
C 0.1565080000 -0.5621180000 -1.0264600000
C 1.0087800000 0.7222870000 -0.9032780000
C 0.4034350000 1.5915400000 0.1715170000
C -0.0134200000 0.5303810000 1.1680100000
C -0.5418240000 -0.7006560000 0.3482780000
C -2.0238400000 -0.7678560000 0.1345670000
H -2.0467500000 0.9537620000 -0.6109200000
H -2.2705700000 -1.7712200000 -0.2783620000
H -2.4358800000 -0.7980350000 1.1879000000
H 0.5487650000 -1.4720100000 1.6382300000
H 1.9338200000 0.2110740000 1.4650500000
H -0.7991410000 0.8027780000 1.8633500000
H -0.6038400000 2.9343500000 -0.8700680000
H 1.0779800000 2.3580800000 0.6303490000
H 2.4933800000 -0.4900350000 -0.9388250000
H 1.1635400000 1.1869100000 -1.8578300000
H -0.6230700000 -0.3344110000 -1.7806000000
H 0.8449200000 -1.9375900000 -2.3385000000
H 0.8326590000 -2.3744700000 -0.6346670000
N 1.0162200000 -1.6707600000 -1.3602800000
O 2.3707400000 0.3484590000 -0.4824700000
O -0.8049620000 2.2428400000 -0.2255200000
O 1.0703700000 0.0773213000 1.9447100000
O -0.1770800000 -1.8871200000 1.0475100000
O -2.6049600000 0.1615880000 -0.6978500000
