13
0 1
C 1.1068300000 -0.5234710000 0.0002938620
C 1.3484900000 0.9624730000 -0.3032820000
C 0.2154430000 1.5939500000 0.3376470000
C -1.2881300000 -0.2814020000 0.0421761000
H 2.3841400000 1.2181700000 0.0828639000
H 1.3774900000 1.2034600000 -1.4319400000
H 0.1984450000 1.4285700000 1.3776500000
H 0.1842690000 2.6596000000 0.2625090000
H -0.3454730000 -1.9284300000 0.5345180000
N -0.1453230000 -0.9421710000 0.3948740000
O 2.0225100000 -1.3223300000 -0.0970002000
O -1.0918900000 1.0944600000 -0.1667040000
O -2.3152900000 -0.8340750000 -0.2426370000
