9
0 1
C -0.4766370000 0.1394300000 -0.0292854000
H -1.8509800000 -1.2858400000 -0.4530120000
H -2.4687200000 0.2173750000 -0.0193219000
H 0.5409450000 -1.4380100000 0.6909640000
H 1.5314100000 0.8063450000 0.2030260000
N -1.7125700000 -0.4478420000 0.0856939000
N 0.5915450000 -0.8058360000 -0.1001940000
O -0.2162850000 1.3175400000 -0.0032081600
O 1.8355800000 -0.1126250000 -0.0148472000
