10
0 1
C 2.5733500000 -0.1672400000 -0.0239413000
H 1.1322600000 -1.4212000000 0.0290468000
H 3.2340100000 -1.0595900000 -0.0583396000
H -3.0984200000 1.0421800000 0.8386010000
H -0.5647500000 -0.4000570000 -0.5642100000
O 1.2768300000 -0.4694240000 -0.0324788000
O 2.9555000000 0.9488540000 0.0159477000
O -2.8606700000 0.8966010000 -0.1143000000
O -2.3546400000 -0.4782550000 -0.1062940000
O -1.0349200000 -0.5425140000 0.2244440000
