20
0 1
C 2.0630100000 -0.4871350000 0.0063817400
C 0.4219870000 1.2182800000 0.1070570000
C -1.8236400000 0.5318020000 0.7522490000
C -2.2068000000 -0.6078360000 -0.2287320000
H -0.4180920000 -1.4483500000 0.1929640000
H -2.2898000000 0.3210260000 1.7437900000
H -2.3267500000 1.4567800000 0.3630150000
H 0.7419560000 2.7624000000 -1.1064400000
H 0.0244692000 0.0796025000 1.6399300000
H 2.0013500000 -2.3374300000 0.5032060000
H 3.6986600000 0.2768640000 -0.7550920000
H 3.4909600000 -1.4225800000 -0.8989800000
H -0.5633570000 2.9275500000 -0.0789017000
N 3.3828300000 -0.5857770000 -0.3558090000
N 1.3711000000 -1.5118100000 0.4467140000
N 1.6669900000 0.8155970000 -0.0650055000
N -0.0130424000 2.2745400000 -0.6260410000
N -0.4434920000 0.7056110000 1.0084700000
O -1.3229600000 -1.7089400000 -0.2414240000
O -3.2817200000 -0.5952670000 -0.7940200000
