47
0 1
C -3.1953600000 0.1316940000 -1.7264100000
C 2.3173400000 -2.4749600000 0.4859760000
C 3.0463900000 -1.2906400000 -0.2371460000
C 2.7969200000 0.8894650000 -1.2890600000
C 0.8818560000 2.4521000000 -1.0636500000
C 0.1461200000 2.2465000000 1.3033100000
C 2.3464300000 2.2153400000 -0.8287320000
C -0.6101390000 0.1579570000 2.5830400000
C -1.7030000000 -0.7524130000 2.0140700000
C -2.4867500000 -1.5411000000 -0.1112350000
C -2.5254300000 -1.1755100000 -1.6044500000
C -0.8268370000 1.5986300000 2.2824900000
H 2.5696300000 2.3407000000 0.2423900000
H -0.9067030000 1.7395100000 -0.3316630000
H 0.5610110000 2.0039100000 -1.9823900000
H 0.6720340000 3.5270800000 -1.1145800000
H 2.9775400000 3.0260300000 -1.3183300000
H 3.8971300000 0.8118160000 -1.2466000000
H 0.6685630000 -2.3589100000 -0.7573560000
H 1.2606300000 -0.3914880000 -0.4124730000
H 2.5046200000 -2.5185800000 1.5954700000
H 2.7593100000 -3.3533000000 0.0715298000
H 0.3092610000 -2.7953300000 0.8204260000
H -0.1329000000 3.3345800000 1.2179100000
H 2.6080800000 0.6829440000 -2.3635100000
H 1.1369300000 2.1592800000 1.6977400000
H 0.3996830000 -0.0759068000 2.1452200000
H -1.8312200000 1.6265600000 1.8108500000
H -5.2640700000 -0.4802810000 -1.8227400000
H -4.8184200000 0.5035940000 -0.5173890000
H -3.0125300000 0.4919220000 -2.7943700000
H -2.6441900000 0.7825700000 -1.0573800000
H -0.9007740000 2.2161900000 3.1749000000
H -3.0672200000 -1.9034300000 -2.2390000000
H -1.5166300000 -1.1275300000 -2.0828500000
H -2.0219400000 -2.4864600000 -0.0117374000
H -0.9021690000 -0.3478280000 0.1640900000
H -1.5083000000 -1.8080600000 2.3459900000
H -2.6963600000 -0.5631100000 2.4800500000
H -0.5661380000 -0.0005895420 3.6934100000
H -3.4986700000 -1.6680100000 0.3295980000
N 0.9016440000 -2.2371100000 0.2455680000
N -4.5780100000 0.1488960000 -1.4218300000
N -1.7870500000 -0.4999740000 0.5798840000
N 0.0685639000 1.7322700000 -0.0931258000
N 2.2310700000 -0.2019620000 -0.5015180000
O 4.2481300000 -1.3381300000 -0.5311530000
