10
0 1
C -0.0033068200 -0.7123580000 0.0957501000
C 0.0121129000 0.6871040000 0.0805757000
H 1.9331500000 -1.7616600000 0.0564598000
H -1.7836200000 1.8632600000 0.0346463000
N -2.0754200000 -0.1419100000 -0.0924829000
N -1.2906400000 -1.1856400000 0.0526216000
N 1.3355400000 -0.9711960000 -0.0780936000
N 2.0396200000 0.1424610000 -0.0389663000
N 1.2611300000 1.1500500000 0.0168051000
N -1.2991300000 1.0133700000 -0.0240355000
