10
0 1
C 2.4521100000 0.0305551000 0.1951470000
H -0.4662350000 -0.1467570000 -0.0042183900
H -3.1893500000 0.7141920000 -0.6517930000
H 1.6401200000 1.7509200000 0.0657561000
H 2.9524400000 0.4628490000 1.0721000000
O -1.0623900000 0.3635900000 0.5566830000
O -2.2614700000 -0.3728210000 0.5597780000
O -2.8761100000 -0.1923640000 -0.7077260000
O 1.6387500000 0.9104510000 -0.4104920000
O 2.6050100000 -1.0794200000 -0.2048350000
