11
0 1
C 0.4988160000 0.1251990000 -0.0296548000
H -1.9474900000 0.3963910000 0.8867280000
H -2.0595700000 0.4886170000 -0.7071000000
H -0.5513950000 -1.7295900000 -0.2248590000
H 1.7301400000 -1.5686300000 -0.0211884000
H 2.4984600000 0.0167477000 -0.0278661000
H -0.4309090000 1.7838900000 0.0188341000
N -1.8943400000 -0.1829620000 0.0357330000
N -0.5926890000 -0.7148090000 -0.0356848000
N 1.6693900000 -0.5572420000 0.0670355000
N 0.4987580000 1.4352100000 -0.0308866000
