9
0 1
C 1.2239300000 -0.4536730000 0.1782070000
C 0.1277340000 1.4244800000 -0.1324030000
H 2.7920800000 -0.8750210000 -0.9740660000
N 1.1240900000 0.7459100000 -0.4377540000
N -2.2076300000 -0.4939510000 -0.3387750000
N -2.8670200000 -1.4021700000 -0.1139320000
O 2.1420400000 -1.2834800000 -0.4618640000
O -0.6556020000 2.2848100000 0.1095110000
O 0.6075370000 -0.6136200000 1.2189100000
