11
0 1
C 2.5365000000 -0.7117960000 -0.4451330000
C 1.2514100000 -0.3447760000 0.1790730000
C -0.1955150000 1.5055300000 -0.0325754000
H 2.4446500000 -0.7290230000 -1.5021300000
H 3.3133900000 0.0255167000 -0.2665790000
H 2.9108900000 -1.6692100000 -0.0908879000
N 0.8112360000 0.9083800000 -0.3495640000
N -2.0633800000 -0.7278350000 -0.4107220000
N -2.6048800000 -1.6459700000 -0.1543010000
O -1.0525500000 2.2321100000 0.2261300000
O 0.6495290000 -0.9899930000 1.0305600000
