19
0 1
C 1.2501800000 -0.8489150000 0.1179830000
C 0.4176160000 -2.0420500000 0.4699000000
C -0.8710030000 -2.1452200000 -0.3543640000
C -1.5558600000 -0.8290440000 -0.2094350000
C -0.8829420000 0.4062060000 0.0342504000
C 0.5945170000 0.4760980000 0.0714883000
H 1.2666300000 3.4238400000 0.0370527000
H -0.6670520000 -2.3986700000 -1.3855100000
H -1.5257000000 -2.9166900000 0.0310212000
H 1.0361400000 -2.9095100000 0.3543640000
H 2.9103600000 0.7758430000 -0.2333390000
H 0.2131110000 -1.9807500000 1.5438700000
N 2.5010400000 -1.0741500000 -0.0304457000
N -2.8352300000 -0.5846760000 -0.1216900000
N -1.7593500000 1.3483200000 0.1692960000
N 1.3249000000 1.5504700000 0.0232455000
O -2.9496900000 0.7647180000 0.0776131000
O 3.3917000000 -0.0748039000 -0.1719050000
O 0.6119680000 2.7130500000 -0.0818633000
