12
0 1
C 0.9268810000 0.6326280000 -0.0244028000
C -1.4997900000 -0.2449660000 0.0114733000
H 0.9994280000 2.4143800000 0.8668760000
H 1.0236200000 2.4553200000 -0.8185230000
H -1.1180200000 1.6419500000 0.0227887000
N 0.6349510000 2.0166500000 0.0048190400
N 2.0849800000 0.0485320000 0.0010253000
N 1.8315400000 -1.3086800000 -0.0139508000
N 0.5899840000 -1.5410200000 0.0152774000
N -0.0580316000 -0.3405990000 0.0161220000
O -1.9251500000 1.0658200000 -0.0105384000
O -2.2063000000 -1.1860500000 -0.0090385900
