39
0 1
C -1.3866400000 -1.8743300000 1.1792800000
C 1.3847600000 2.3233300000 0.0363574000
C 2.3269100000 1.7912500000 -1.0423300000
C 2.0016100000 0.4399190000 -1.6640900000
C 2.9021900000 -0.8491190000 0.3412400000
C -1.0337700000 2.7464100000 0.4044720000
C -2.7696400000 -1.1479600000 -0.9173340000
C -2.5007600000 -2.1615100000 0.1697130000
C -0.0538659000 -1.9711500000 0.3836740000
C 1.7945800000 -0.7956440000 -0.7040040000
H 3.3434100000 1.7951000000 -0.5827160000
H 4.7280500000 -1.1060700000 0.5281540000
H -2.4018400000 2.1390900000 -0.9572160000
H -2.9926900000 3.2305300000 0.1777430000
H -1.7953600000 3.3462900000 2.0040600000
H -0.1069140000 2.5224800000 -1.3500700000
H 1.4109600000 1.7353100000 0.9582900000
H 1.6679300000 3.3448900000 0.3517940000
H 2.3159700000 2.5493900000 -1.8448700000
H 1.0954500000 0.4963890000 -2.2858700000
H 2.8477900000 0.1672990000 -2.3095500000
H 1.9771000000 -1.7269400000 -1.2403800000
H 0.1481460000 0.0784438000 0.2328480000
H -2.2569500000 0.1846370000 0.3993140000
H -2.3240000000 -3.1373900000 -0.2890190000
H -3.4420500000 -2.2397800000 0.7213390000
H -1.2953400000 -2.6242400000 1.9681900000
H -0.7190800000 -0.1960980000 2.2388600000
H -2.2769800000 -0.5557400000 2.4890000000
N -2.1697600000 2.9185200000 -0.3263500000
N -0.9025730000 2.9946300000 1.6549800000
N -1.5489800000 -0.5298090000 1.7716400000
N 0.4592240000 -0.8008140000 -0.1255740000
N -0.0044821300 2.2309300000 -0.3917160000
O 2.7646800000 -0.5989080000 1.4964500000
O 0.4900780000 -3.0343200000 0.2153410000
O -3.0548100000 -1.4878300000 -2.0379100000
O -2.6508700000 0.1270810000 -0.5238600000
O 4.1071900000 -1.0941500000 -0.2016010000
