16
0 1
C 1.6832700000 -0.7378660000 0.1031890000
C -0.6273200000 -0.6925640000 -0.2549000000
C -2.9318900000 -0.7158750000 0.0303147000
C -1.9488900000 1.2710700000 0.1527290000
C -0.7111250000 0.7054670000 -0.1034870000
C 1.7687100000 0.8085930000 -0.0809506000
H 3.5865100000 -0.8403650000 0.1961130000
H -3.9278900000 -1.2769300000 0.0148183000
H -1.9337100000 2.3946800000 0.3174380000
H 0.5088720000 2.3892800000 0.2363100000
N 0.5435980000 -1.3993600000 -0.1683470000
N -1.7826400000 -1.4041100000 -0.1726420000
N -3.1082200000 0.5928300000 0.1690470000
N 0.5182030000 1.3531000000 0.0652406000
O 2.8164500000 -1.4345700000 0.3495230000
O 2.8301800000 1.3724500000 -0.2369160000
