21
0 1
H -3.3963300000 0.8752550000 0.3112540000
H -0.9744780000 -1.6435100000 -0.9526280000
H 0.0051974700 -0.4199500000 -1.3033700000
H -2.8427300000 -1.3215500000 0.0908046000
H -1.7940600000 -2.0340500000 0.9723450000
H -2.0928500000 1.1077300000 -0.4717460000
H -1.7356200000 3.1535600000 0.3357780000
H 0.5356100000 0.2554210000 0.8067950000
H -0.5774200000 2.1460900000 0.3557870000
H 2.5448300000 -2.1446000000 0.9502420000
H 2.1404200000 -1.4424700000 -0.3106970000
H 3.9647200000 1.1638300000 -1.0293100000
H 3.5350800000 -0.0539519000 -0.0121529000
H 1.7349600000 1.1921700000 1.2151900000
O -2.7552800000 0.3572320000 -0.2226800000
O 0.7241300000 1.1646500000 1.1687600000
O -2.3578500000 -2.1711200000 0.1773020000
O 2.3029500000 -1.2723500000 0.5657640000
O -0.1383340000 -1.1626300000 -0.7421730000
O -1.2569500000 2.5131000000 -0.2925410000
O 3.3504200000 0.4668700000 -0.7742190000
