21
0 1
C 1.3979200000 -0.5773950000 1.0721500000
C 0.7591910000 -1.3849000000 -0.0350960000
C -1.0235700000 0.3407320000 -0.5253860000
C -0.2047090000 1.6688100000 -0.2407530000
C -1.9312300000 -0.0564446000 0.6599750000
H 0.8124570000 1.0032700000 -1.6407400000
H -2.8243200000 -1.8826600000 0.6943190000
H -1.3391400000 -0.5114930000 1.4193100000
H -2.5357200000 0.8064260000 0.9529300000
H -1.5498300000 0.6067450000 -1.4145400000
H 0.6399250000 0.0651678000 1.5980300000
H 1.8387300000 -1.3749300000 1.7316300000
H 2.0118100000 0.9741060000 0.0134509000
H 3.0365000000 -0.2870260000 -0.1112170000
H -0.4562780000 -1.3240100000 -1.6071000000
N 2.5209900000 0.2862030000 0.5802900000
N -0.1405920000 -0.7235860000 -0.8311570000
O -2.8480500000 -1.1169800000 0.1234160000
O 1.1740000000 -2.4940000000 -0.4337630000
O -0.3501320000 2.4398600000 0.6757510000
O 0.7388560000 1.8012800000 -1.0485700000
