10
0 1
C 0.0664215000 0.7594390000 -0.0510935000
C -1.0111400000 -0.3461440000 0.0282919000
H 2.1678000000 -1.2068500000 0.7069670000
H 1.9321700000 1.2752700000 0.1833360000
H 0.2910870000 -1.6025000000 -0.5824810000
N 1.3318200000 0.4309280000 0.3964960000
O 1.9522200000 -0.7580040000 -0.0867701000
O -0.2090210000 1.9011600000 -0.3413450000
O -0.6385810000 -1.5666000000 -0.2911270000
O -2.1103000000 -0.0718319000 0.3509320000
