30
0 1
C -1.4986800000 -1.6227300000 -0.4001000000
C -0.1683990000 -1.0335100000 0.1128960000
C -2.8164200000 -1.0341600000 0.4515180000
C -2.8719000000 0.4488160000 0.1976950000
C 1.9487200000 0.0973594000 -0.6628820000
C 2.9836400000 -0.7716580000 -0.0936641000
C 1.8183800000 1.4153600000 0.1625710000
C 0.6676180000 2.2372700000 -0.1574780000
H 1.7763000000 -0.8791700000 1.4198000000
H 1.2496200000 3.6233500000 1.1142200000
H -0.3566330000 3.7931600000 0.6724860000
H 2.7823800000 1.9980500000 0.0252691000
H 1.7613200000 1.0556700000 1.2038600000
H 2.2695100000 0.3411010000 -1.6858700000
H 0.2219480000 -0.3067370000 -1.7250300000
H -2.7509300000 1.5803000000 -1.1694400000
H -3.7904600000 -1.4058400000 0.0604075000
H -2.6046900000 -1.3511700000 1.5124000000
H -1.6541200000 -1.2951200000 -1.3629600000
H -0.7921520000 -3.6681400000 -0.2496780000
H -2.2133600000 -3.4007700000 0.5025400000
N -1.6995400000 -3.1465600000 -0.3096050000
N 0.6426980000 -0.5636000000 -0.8956210000
N 0.3476370000 3.0892900000 0.8911750000
O 0.0306436000 -1.0266000000 1.3446200000
O -2.6984000000 1.2942900000 0.9573380000
O -2.9981200000 0.6430940000 -1.1379300000
O 4.0514200000 -1.0746800000 -0.6299730000
O -0.0199466000 2.1596100000 -1.1669300000
O 2.7203800000 -1.2656000000 1.1600000000
