24
0 1
C 1.9862700000 -1.1347600000 -0.3269540000
C -2.3892400000 0.4932800000 -0.3164540000
C -2.1288000000 -0.8530590000 0.2810500000
C -1.1053900000 0.7067910000 -1.2845400000
C 0.2355180000 0.4585290000 -0.7614740000
C 0.9557300000 1.4549200000 -0.1831290000
C 0.7979860000 -0.8624740000 -0.9196920000
C 2.2328600000 1.1204100000 0.4166250000
C 2.7818100000 -0.1580370000 0.2739880000
H -1.3266700000 -0.0133708000 -2.1000200000
H -1.1978200000 1.7293200000 -1.6290700000
H -3.1967700000 0.4678380000 -1.1024900000
H -2.9105300000 1.2442800000 1.4788600000
H -1.9499000000 -1.7023900000 2.0017200000
H 2.8133800000 1.8020200000 1.0494500000
H 4.6360600000 0.4569190000 0.5373640000
H 0.6349500000 2.4934400000 -0.1922220000
H 2.5073900000 -2.0672400000 -0.2497570000
H -1.7921000000 2.2081100000 0.7738360000
H 0.1117850000 -1.5966800000 -1.3416400000
N -2.6272800000 1.6391700000 0.5663540000
O -2.1015500000 -1.8134600000 -0.4423060000
O -2.0262300000 -0.8068370000 1.6381300000
O 4.1103800000 -0.3609670000 0.5207990000
