21
0 1
C 1.6574300000 -1.0796200000 -0.4227400000
C 1.2547800000 0.1467460000 0.4238110000
C -1.2006100000 0.4046760000 0.4328950000
C -1.6537700000 -0.9962950000 -0.0257191000
C -1.1139300000 1.3186900000 -0.7415520000
H -0.7373160000 -1.5110000000 1.4416600000
H 0.0609117000 2.6726500000 -0.2359870000
H -0.2863540000 1.0082600000 -1.4553000000
H -2.0203000000 1.2260400000 -1.2634100000
H -1.9709700000 0.7753420000 1.1196900000
H 1.6750200000 -1.9525100000 0.2563590000
H 0.8996030000 -1.2974500000 -1.2028800000
H 3.4912700000 -0.2697720000 -0.2079420000
H 2.8746300000 -0.1848610000 -1.6820100000
H 0.1794290000 0.8881610000 1.9500800000
N 2.9970900000 -0.8509580000 -0.9135410000
N 0.0562796000 0.2068200000 1.1539100000
O -0.8968240000 2.6806700000 -0.2719540000
O 2.1086300000 0.9902890000 0.6461180000
O -2.4850800000 -1.1403300000 -0.8639670000
O -1.1270900000 -1.9820100000 0.6894240000
