10
0 1
C 2.1779400000 -0.0221868000 0.2592860000
H 3.4037000000 -1.4756000000 0.0507119000
H 1.7319000000 -0.6779660000 1.0380100000
H -3.6558700000 0.6929670000 0.1820690000
H -0.7764900000 0.0189887000 -0.7559760000
O 3.2495300000 -0.5909730000 -0.3273700000
O 1.8261600000 1.0802400000 0.0190547000
O -3.3689000000 -0.0657243000 -0.3494760000
O -2.2423800000 -0.5553650000 0.3172860000
O -1.1857700000 0.3286650000 0.0816894000
