36
0 1
C 1.6737800000 1.9775300000 -0.2717930000
C -3.9461500000 0.3124030000 -0.2582160000
C -2.0261500000 -1.2559500000 -0.5967690000
C -0.1959020000 -1.6968200000 1.1356900000
C -1.0659800000 -0.6210630000 0.3813830000
C -2.9509400000 -0.2363720000 -1.2381700000
C 3.2662500000 -0.0613336000 0.0834044000
C 3.1201400000 1.4424400000 -0.0425045000
C 0.5914170000 1.2407300000 0.4658210000
C 2.7032100000 -0.8781800000 -1.0332200000
H -1.6195300000 -0.0663448000 1.1455500000
H 0.2817370000 -0.2701500000 2.3738700000
H -4.5492900000 1.1768400000 -1.7810800000
H -3.5417100000 -0.7404700000 -2.0158100000
H -2.3442900000 0.5545060000 -1.7512000000
H -2.6263100000 -2.0303700000 -0.1008210000
H -1.3544100000 -1.6718200000 -1.3607300000
H 0.3408620000 -0.0606717000 -1.0522800000
H 2.4974200000 -2.7911000000 -1.6699000000
H 4.3375900000 -0.2654390000 0.1699200000
H 2.7969000000 -0.4430770000 1.0091500000
H 3.7641500000 1.7291100000 -0.8961740000
H 3.4672400000 1.9783100000 0.8541860000
H 1.4410200000 1.8566300000 -1.3303000000
H 0.7232820000 3.7994300000 -0.0954713000
H 1.8216400000 3.3978900000 1.0397400000
H 3.2008800000 -2.6872300000 -0.1253340000
N 1.6486300000 3.4020900000 0.0408165000
N 3.0221900000 -2.2338200000 -1.0064100000
N -0.1157250000 0.3268030000 -0.2386770000
O -4.0441100000 0.0106099000 0.8949820000
O 0.0577879000 -2.8080900000 0.6720860000
O -4.7895400000 1.2533200000 -0.8442890000
O 0.4725300000 1.3600100000 1.7076200000
O 1.9531500000 -0.4878510000 -1.9085600000
O 0.4075670000 -1.2369900000 2.2610300000
