15
0 1
H -1.8860400000 0.0528939000 -0.3323450000
H -2.4199600000 0.3645250000 -1.7803200000
H -0.5968570000 -0.9345690000 0.9148920000
H -1.5331200000 -0.7992670000 2.1658500000
H -0.2429630000 -1.2804400000 -0.9476740000
H 1.1966700000 -1.2146200000 -0.3105300000
H 1.7718600000 0.7563040000 0.0656825000
H 2.9916900000 0.2154550000 -0.7599480000
H -0.1510570000 1.3214200000 1.0192800000
H -0.2599650000 1.5248400000 -0.4949790000
O -1.5935600000 0.2970790000 -1.2370100000
O -1.2719200000 -0.3243610000 1.3461000000
O 0.3267170000 -1.7055000000 -0.2806070000
O 2.3683300000 -0.0255916000 -0.0398204000
O 0.3116470000 1.7575600000 0.2688460000
