12
0 1
C -0.1657070000 -0.2576830000 0.0222815000
H 1.9432400000 0.9413880000 0.0038410000
H -0.7013390000 1.6797300000 -0.1804300000
H -1.5552800000 -1.6065900000 -0.0960385000
H -3.1659200000 0.2278260000 0.4304200000
H 2.5694800000 -1.5660400000 0.1919940000
N 0.0831758000 1.0834700000 -0.2982370000
N -1.4492400000 -0.6774910000 0.3942060000
N 0.6838200000 -1.2449200000 -0.0394068000
O 1.2179200000 1.6389800000 0.2699710000
O -2.3938600000 0.1525980000 -0.2398140000
O 2.0109100000 -0.8237770000 -0.1400840000
