19
0 1
C 1.0680600000 1.8996700000 0.4787450000
C -0.1919600000 1.9225700000 -0.3416810000
C -1.0667700000 0.7156850000 -0.1618420000
C -2.8028900000 -1.1981000000 0.1647140000
C -1.4546400000 -1.6018600000 0.1808680000
C -0.5443930000 -0.5731080000 -0.0480548000
C 0.9122300000 -0.6044770000 -0.0570353000
C 1.6988800000 0.5892750000 0.1198420000
H -1.0848300000 -2.5927500000 0.5204050000
H -3.5378000000 -1.9230300000 0.3522190000
H 0.0759643000 2.0167300000 -1.4336500000
H 0.9136720000 1.8956500000 1.6019000000
H 1.7335300000 2.7613900000 0.2904380000
H -0.7517070000 2.8044700000 -0.1296360000
N 2.9323900000 0.2084410000 0.1013980000
N -2.3593800000 0.9788280000 -0.1800350000
N -3.2194200000 0.0240040000 0.0108703000
N 1.6882500000 -1.6105200000 -0.2176270000
O 2.9559000000 -1.1332100000 -0.1521550000
