17
0 1
C -0.7284300000 0.6334140000 -0.3307340000
C -1.1953800000 -0.7811220000 -0.2088160000
C 0.5021390000 0.9712750000 0.5315860000
C 1.7882400000 0.1339280000 0.2842070000
H -2.5620300000 -0.0266030000 0.7671270000
H 3.1486700000 -0.2916820000 -1.1364700000
H 0.2456080000 0.7078420000 1.5973600000
H 0.7646830000 2.0643500000 0.4203760000
H 2.1261900000 0.9851310000 -1.5952000000
H -2.5400900000 1.5292200000 -0.5845080000
H -1.8072200000 1.9380200000 0.7862160000
H -0.3554860000 0.7270440000 -1.3420800000
N -1.6716200000 1.7045200000 -0.1608050000
N 2.2949700000 0.2048220000 -0.9603540000
O 2.2049900000 -0.6767410000 1.1207400000
O -0.6039170000 -1.6955800000 -0.7387570000
O -2.2989600000 -0.9706380000 0.5277430000
