13
0 1
C 0.0287450000 0.1202470000 0.0723184000
H -1.6289800000 -2.4457200000 -0.7213280000
H -1.5544000000 -2.1413800000 0.9268110000
H -1.9883200000 -0.0391803000 -0.0499679000
H 1.0985900000 -1.5909300000 -0.0932083000
H 2.7814200000 0.3784950000 0.4653180000
H -1.0570300000 2.8559000000 -0.0299372000
N -1.1143300000 -1.9763800000 0.0386623000
N -1.1083500000 -0.5765880000 -0.2091970000
N 1.1904200000 -0.6358830000 0.2717730000
N 0.1062780000 1.3810500000 0.1975540000
O 2.3081200000 -0.0364702000 -0.3009630000
O -1.2258600000 1.9009700000 -0.0769305000
