13
0 1
C -1.2000100000 0.1439960000 -0.0227421000
C -0.3312010000 1.3497600000 -0.0430970000
C 1.6827700000 -0.1617180000 0.0344273000
C -0.5653440000 -1.2336600000 -0.0248840000
H -2.8452300000 -0.6875450000 0.0079908900
H 1.6549600000 1.8389000000 0.0952658000
H 1.1902800000 -2.2432100000 -0.0938330000
N -2.4700700000 0.2585080000 0.0542597000
N 1.0317300000 1.0633000000 0.0432960000
N 0.8139260000 -1.2831800000 -0.0464407000
O -0.7142860000 2.4965800000 -0.0320057000
O 2.8889600000 -0.2618780000 0.0089495500
O -1.3179800000 -2.2058000000 0.0193743000
