17
0 1
C -1.9334200000 -0.2266910000 -0.1762720000
C -0.8134060000 -0.2810880000 0.9035390000
C 0.1119740000 -1.4043400000 0.9194700000
C 1.3432000000 -1.0414800000 0.0565286000
C 0.9192380000 1.4193300000 -0.0393489000
H -0.6186540000 1.9689600000 1.3002200000
H 2.4781700000 0.3308360000 -0.7527660000
H 0.5231760000 -1.6264500000 1.8890600000
H -1.1204100000 -0.0913108000 1.9726300000
H -0.5219870000 -0.9591050000 -1.2656000000
H -0.2113930000 -2.3333300000 0.5474970000
N 1.6465400000 0.2822330000 -0.2253990000
N -0.1239020000 1.1722100000 0.8106840000
O 2.0378700000 -1.9437600000 -0.3578290000
O -1.4389300000 -0.6312550000 -1.3891200000
O -3.0147400000 0.2642840000 -0.0847009000
O 1.2967000000 2.5275900000 -0.3897950000
