16
0 1
C -2.2498500000 0.0057442200 0.3143030000
C 0.1106910000 0.7282570000 0.0674792000
C 1.8576500000 -0.7798740000 0.5256970000
H -2.3802200000 -0.9872160000 -1.3402900000
H -2.0297600000 -0.3072030000 1.3528400000
H -3.1770500000 0.5948350000 0.2284990000
H -1.4846000000 1.8986100000 -0.2795020000
H -0.1611260000 -1.2677000000 0.0890303000
H 2.2462000000 -0.1729120000 1.3874200000
H 2.0337000000 -1.8315500000 0.7954520000
H 2.4262900000 0.4067480000 -0.8263300000
N -1.2269900000 0.9243910000 -0.1213310000
N 0.4377490000 -0.5396320000 0.4516710000
O -2.2703000000 -1.2018200000 -0.4104560000
O 0.9181760000 1.6701600000 -0.0545750000
O 2.5696700000 -0.5623000000 -0.6805150000
