25
0 1
C 4.0955700000 -0.9419520000 0.1940310000
C 3.3895000000 0.0955740000 -0.6594890000
C 1.3247300000 1.2566800000 -0.7624850000
C -0.8369830000 2.2602600000 0.1465510000
C -2.0897900000 0.5144500000 0.1263960000
C -0.8559410000 0.0945039000 -0.2850690000
C -1.5934800000 -2.0820200000 -0.4483620000
C -3.1723800000 -0.4508300000 0.2764550000
H -1.3865000000 -3.1100700000 -0.7069410000
H 0.4048360000 -1.4918800000 -0.8000030000
H -0.4119500000 3.2574400000 0.2492190000
H 1.7525000000 2.2440500000 -0.4879790000
H 1.3451600000 1.2158900000 -1.8573500000
H 3.8908300000 1.0733200000 -0.5873460000
H 3.3878700000 -0.1811330000 -1.7230200000
H 5.1347500000 -1.0763800000 -0.1678690000
H 3.5874700000 -1.9113100000 0.0389543000
H 3.2778900000 -0.3622850000 1.8557700000
N -0.0265888000 1.1893600000 -0.2852480000
N -2.0498700000 1.8801600000 0.4008220000
N -0.5407430000 -1.2020400000 -0.5881270000
N -2.8001400000 -1.7860100000 -0.0805613000
O 4.1534800000 -0.5838700000 1.5461400000
O 2.0441100000 0.1972440000 -0.1896630000
O -4.2761900000 -0.2018790000 0.7097960000
