14
0 1
C 1.3298100000 0.0398474000 -0.0141558000
C -0.6682530000 0.6456570000 -0.0265923000
H 3.0788800000 -0.8380930000 0.2809480000
H 3.0156900000 0.7026600000 0.6367720000
H -1.7676800000 2.1073600000 -0.7433680000
H -1.8266900000 1.9681200000 0.8692900000
H -2.1454500000 -1.2828000000 0.9357620000
H -2.4087000000 -1.3468100000 -0.6115910000
N 2.7093200000 0.0721917000 -0.0286649000
N 0.5529960000 1.1426200000 -0.0373572000
N -1.8510100000 1.4110600000 0.0213691000
N -0.6280300000 -0.7139330000 -0.1349310000
N -1.7225400000 -1.5509300000 0.1009560000
N 0.6656380000 -1.1357900000 -0.0818471000
