15
0 1
C -1.0655500000 -0.8063780000 -0.1258570000
C 1.1652200000 -0.6262600000 -0.1762460000
H 1.6895700000 2.4075000000 -0.1249040000
H 1.6676000000 1.3735700000 1.1115600000
H -1.3843900000 2.3055100000 -0.2460540000
H -2.4309500000 1.0642800000 0.1876250000
H 0.1825260000 -2.4932800000 0.2869410000
H 2.7537700000 -1.6518100000 0.2961750000
N 1.0910400000 1.7024600000 0.3591180000
N 0.6550500000 0.6438880000 -0.4588130000
N -0.7889030000 0.4909080000 -0.5318900000
N -1.4712400000 1.3873200000 0.2055320000
N 0.1268630000 -1.5210900000 0.0318579000
N 2.4272800000 -0.7112860000 0.0989826000
O -2.1696000000 -1.0444200000 0.2959690000
