15
0 1
C -1.3207000000 -0.7074380000 -0.0667490000
C 0.9212300000 -0.7074480000 0.0626673000
C 0.9578810000 0.6671620000 0.0925026000
C -1.2762600000 0.7200110000 -0.0126482000
H -2.7057700000 -2.3657200000 -0.1600870000
H -3.3205500000 -0.7832240000 -0.3791970000
H -2.4207300000 2.4472600000 -0.1642550000
H -3.2352000000 1.0191400000 0.4195570000
N -2.5499500000 -1.3403300000 0.0871618000
N -0.2242060000 -1.4324100000 0.0096432000
N 2.1819600000 -1.1131600000 0.0112821000
N 2.1710400000 1.0899200000 0.0064611100
N -0.1769150000 1.4032100000 0.0942800000
N -2.4755200000 1.3720400000 -0.1049490000
O 2.9380500000 -0.0007608890 -0.1122260000
