15
0 1
C 1.8016100000 -0.1970180000 0.0564015000
C 0.1034030000 1.2454700000 -0.0319867000
C -0.8462200000 0.1975890000 -0.0332717000
C -0.2872410000 -1.1255600000 -0.0149610000
H 3.3793600000 -1.3506500000 0.1852650000
H 3.7349800000 0.3034230000 0.4035840000
H 0.4767820000 3.0172400000 -0.0330144000
H -0.4707580000 -2.9841500000 -0.0344803000
N 3.1530400000 -0.3989910000 -0.0863763000
N 1.4150500000 1.0799600000 0.0420280000
N -2.1853700000 0.6208460000 0.0122066000
N 1.0465300000 -1.2915300000 -0.0184465000
O -0.3621620000 2.4939600000 -0.0363469000
O -3.0447200000 -0.2735040000 0.0585640000
O -1.0624200000 -2.1930400000 -0.0252583000
