30
0 1
C -2.2534000000 -1.1612400000 -0.2084730000
C -0.9017570000 -1.0636200000 0.5667390000
C -2.3493400000 -0.0495287000 -1.2427700000
C -1.8615800000 1.3204000000 -0.8242550000
C 1.4507100000 -0.5260540000 0.4617950000
C 1.4488000000 0.9190520000 1.1001300000
C 2.5920300000 -0.6101070000 -0.5776860000
C 2.6732200000 -2.0617800000 -1.0849900000
H 2.2708000000 1.9448900000 2.1393200000
H 3.2491300000 -2.2342700000 -1.9870000000
H 3.0989100000 -2.7480500000 -0.3756770000
H 1.6709500000 -2.4347000000 -1.3254400000
H 1.9065200000 1.0845800000 -1.2766900000
H 3.4907600000 -0.2624490000 -0.1041660000
H 1.4872300000 -1.2271100000 1.3283100000
H 0.0895817000 -0.7310500000 -1.2502800000
H -0.1854860000 2.1709300000 -0.6772740000
H -3.4257700000 0.0291161000 -1.4487900000
H -1.7886800000 -0.3014120000 -2.1532000000
H -2.2294700000 -2.1044100000 -0.6787860000
H -3.6144200000 -2.3034600000 0.6903700000
H -2.7711400000 -1.3239700000 1.6980600000
N -3.2711200000 -1.3909600000 0.8173360000
N 0.1839850000 -0.8004680000 -0.2151740000
O -0.8005750000 -1.2469700000 1.7658400000
O -2.4149200000 1.9721200000 0.0697070000
O -0.7062300000 1.6870600000 -1.3344700000
O 1.0723300000 1.9650400000 0.5773750000
O 2.2617300000 0.2815290000 -1.6747700000
O 2.2837800000 0.9885430000 2.1042000000
