23
0 1
C -2.6335100000 -0.9793210000 1.0034000000
C -2.3223300000 0.3677990000 0.4059940000
C -1.1120800000 0.3892830000 -0.5087710000
C 1.0959600000 -0.3575870000 -0.5275280000
C 2.3231800000 -0.3879070000 0.3950650000
C 2.6363000000 0.9531430000 1.0395700000
H 2.7975700000 1.6509700000 0.2081510000
H 3.5030500000 0.9744040000 1.7051100000
H 1.7692800000 1.3144700000 1.5995100000
H 2.1103100000 -1.0906200000 1.2183800000
H 3.1303700000 -0.8264340000 -0.2043990000
H 0.8267040000 -2.2912800000 -0.4697190000
H 1.2370200000 0.4042400000 -1.3189800000
H -1.2193400000 -0.3527980000 -1.3329300000
H -2.0547100000 1.0568600000 1.2018800000
H -3.2183500000 0.7451360000 -0.1076750000
H -1.7538300000 -1.3798600000 1.5308400000
H -3.5031300000 -0.9306550000 1.6621600000
H -2.8014400000 -1.6929900000 0.1988360000
H -0.7165120000 2.3306000000 -0.4806710000
O -0.0302361000 -0.0053389300 0.2517500000
O -0.8980700000 1.6435900000 -1.1321200000
O 0.9242990000 -1.6163100000 -1.1517400000
