33
0 1
C -1.3401000000 -0.8159810000 0.0298807000
C 1.6346100000 -0.2620430000 -0.7857280000
C 1.2237400000 2.0812700000 -0.1674360000
C 1.4463500000 0.7096230000 0.3200410000
C 2.0874600000 -1.6115400000 -0.3460430000
C -3.1982800000 0.8238650000 -0.4770570000
C -1.9535800000 0.1411840000 -0.9668890000
C -0.7945710000 -0.1173370000 1.3358600000
C -2.2362900000 -0.7087230000 -2.1934400000
H 0.8364930000 0.3696150000 2.3048600000
H 0.5510930000 3.7093500000 0.3066240000
H 4.0699700000 -1.1288200000 -0.6152570000
H 3.7460600000 -2.4166400000 0.4824560000
H 0.6105510000 -0.4124520000 -1.0967100000
H 2.1393300000 0.1780090000 -1.6115300000
H 2.4635500000 0.7552920000 0.7198700000
H -1.3214600000 -1.3376000000 -2.5181400000
H -2.6061000000 -0.1189160000 -3.0345400000
H -3.4495800000 1.6983900000 -1.1174400000
H -4.0535100000 0.1207620000 -0.5405300000
H -3.0497400000 1.2041700000 0.5707770000
H -1.1381000000 0.9726260000 -1.0871600000
H -0.4699940000 -1.3244500000 -0.3886450000
H -1.4460000000 -2.5867300000 0.7460570000
H -2.6878100000 -1.7239900000 1.2956900000
H -3.0986800000 -1.3072700000 -1.9478300000
N -2.1998500000 -1.8706400000 0.4495340000
N 0.5275000000 0.3498660000 1.3631300000
N 3.4207000000 -1.8967100000 -0.3623270000
O 1.2819700000 -2.3220200000 0.2952950000
O -1.5591300000 0.0813038000 2.2844200000
O 1.9961500000 2.6849200000 -0.9447290000
O 0.2121890000 2.7844400000 0.4755150000
