37
0 1
C -1.6800600000 -1.2521400000 -0.2007410000
C 1.5723300000 2.3435400000 0.4844150000
C 2.3247400000 1.4701700000 -0.5384560000
C 1.5502500000 0.3892730000 -1.2479700000
C -0.8703550000 2.5564100000 -0.2308630000
C 1.3576600000 -0.9134760000 -0.4433430000
C -3.1470100000 -0.9549870000 -0.0242927000
C -0.8247930000 -0.6393620000 0.9186140000
C 2.6837000000 -1.5945100000 -0.0929698000
H 2.6750700000 2.1345400000 -1.2888000000
H 1.8342500000 -2.3703000000 1.5843000000
H -2.2670900000 2.1363200000 1.1453600000
H -0.7860620000 2.7531100000 1.8167600000
H -0.9426080000 2.0517100000 -2.0123900000
H 0.5414950000 4.0817900000 0.1630410000
H 1.1996000000 1.7472500000 1.3634300000
H 2.3873900000 3.0404200000 0.8248230000
H 3.1871400000 1.0517300000 -0.0228909000
H 2.0284600000 0.0804993000 -2.1682600000
H 0.5507270000 0.7963240000 -1.5772500000
H -1.5377300000 -3.0822300000 0.6702910000
H -1.4172100000 -0.8257620000 -1.1935700000
H -3.2944900000 0.1408190000 -0.0865367000
H -1.9006700000 -3.1356600000 -0.9803180000
H -4.7629200000 -1.4012900000 -1.0307700000
H 1.0743900000 -0.2751260000 1.5487600000
H 0.8312450000 -1.6491400000 -1.0374900000
H -3.5420600000 -1.3148300000 0.9180660000
N -1.3604600000 -2.6820200000 -0.2491330000
N 0.5544020000 -0.6650300000 0.7822250000
N 0.4967320000 3.1485300000 -0.2517890000
N -1.5186200000 2.0557200000 -1.1802600000
N -1.4305200000 2.7012700000 1.0304000000
O 3.6813900000 -1.5970500000 -0.7479030000
O -1.3702200000 -0.1963280000 1.8997100000
O -3.8199600000 -1.5843000000 -1.1012700000
O 2.6527200000 -2.4096800000 1.0365800000
