16
0 1
C 0.5347370000 -0.8597450000 0.3871680000
C -0.6292730000 -0.6131240000 -0.6168670000
C -1.1094000000 0.7846970000 -0.3035580000
C 1.7140000000 0.0022114500 0.0135614000
H -0.7344880000 -1.1319500000 1.7789900000
H 0.7504320000 -1.9415200000 0.3953750000
H -0.2309670000 -0.7115050000 -1.6362400000
H -2.4620200000 -1.1602800000 -0.7307820000
H -2.5982900000 1.7754300000 0.2550770000
H 1.8834700000 -0.9040210000 -1.7290600000
O 0.0316838000 -0.5607320000 1.7048900000
O -1.6681200000 -1.5588600000 -0.3637910000
O -2.4206500000 0.8310990000 0.0424164000
O -0.3533250000 1.7472500000 -0.3271870000
O 2.2398300000 -0.2716920000 -1.1706500000
O 2.2120100000 0.8366320000 0.7124220000
