26
0 1
C -1.6565700000 1.2827900000 -0.5754780000
C 1.4684200000 1.5441700000 0.4330680000
C 1.9805900000 -0.5261280000 -0.8358650000
C -1.2359000000 -1.0248300000 -1.4625700000
C -1.9408400000 -0.6549580000 0.8811070000
C 1.3797900000 -0.7486240000 1.5488300000
H 1.4263300000 -0.1101490000 2.4321600000
H 2.1188900000 -1.5343700000 1.6652400000
H -2.8275600000 -0.1447400000 1.2815300000
H -2.0934100000 -1.7306600000 0.7434640000
H -1.3779500000 -0.5148510000 -2.4284600000
H -1.8664300000 -1.9110700000 -1.4267500000
H 2.2510300000 -1.5469500000 -0.6064800000
H 2.3833300000 1.9645000000 -0.0110832000
H 1.3321700000 1.8655400000 1.4667400000
H -1.3654700000 1.4727200000 -1.6210200000
H -2.6630500000 1.6504800000 -0.3791670000
H 2.8443300000 0.0336978000 -1.2041600000
N 1.6233000000 0.0844407000 0.3994150000
N -1.6518300000 -0.1395330000 -0.4362440000
O -0.9099530000 -0.4434530000 1.8844200000
O -0.7943590000 2.0725400000 0.2038460000
O 0.5015010000 2.1009000000 -0.4055450000
O 0.9921610000 -0.5506630000 -1.8116100000
O 0.1059560000 -1.5920500000 -1.4116500000
O 0.1127670000 -1.3801600000 1.5919500000
