25
0 1
C 1.2628000000 -0.1739580000 -0.0617365000
C 0.6866320000 0.0690133000 1.3164900000
C 2.5638100000 -0.8817180000 -0.1725440000
C -1.7736400000 0.4188290000 0.3011470000
C -2.0636000000 -1.0851700000 -0.1284960000
C -1.5442500000 1.2343800000 -0.9827310000
H -1.2095000000 -2.8551100000 -0.1504040000
H -0.0597798000 2.3396900000 -0.4094100000
H -0.8244690000 0.7870940000 -1.7072600000
H -2.5506400000 1.3955600000 -1.4135800000
H -2.6571100000 0.8252500000 0.8023620000
H -0.9996920000 0.7183010000 2.2642600000
H 2.4618100000 -1.9156600000 0.0064801600
H 3.4068300000 -0.4623770000 0.4243780000
H 0.4924510000 -0.7268600000 -0.6303530000
H 1.9016200000 1.3286900000 -1.4254000000
H 2.0510500000 1.6952000000 0.1364110000
H 2.4599100000 -1.1551800000 -2.1460200000
N 1.4673000000 1.2512800000 -0.5466410000
N -0.6895410000 0.4854210000 1.3265800000
O -0.9943700000 2.5111100000 -0.6508500000
O 1.3489400000 0.1906130000 2.3176400000
O 3.0936500000 -0.7685730000 -1.5156900000
O -3.0241500000 -1.4513100000 -0.6946680000
O -1.0124900000 -1.9343000000 0.1880950000
