35
0 1
C -0.8629400000 2.0102800000 0.5297230000
C 4.0936400000 0.9500570000 0.0146001000
C 3.2331700000 -0.3648750000 0.1721420000
C 1.1657400000 -1.5215800000 -0.5546200000
C 1.8599000000 -0.2397090000 -0.3803600000
C 3.2425500000 -0.8615450000 1.5953300000
C -2.5301900000 0.2914370000 -0.1875970000
C -1.7419100000 0.8108790000 0.9781520000
C 0.2458800000 1.5772600000 -0.3715890000
C -3.1675000000 -1.0420300000 0.0257229000
H 3.7503200000 -1.1384400000 -0.4169790000
H -0.3522970000 -2.6247500000 -0.3577520000
H 4.2932800000 -1.0134000000 1.9467700000
H 2.8170300000 -0.1366220000 2.2866300000
H 2.6364400000 -1.7445900000 1.6969300000
H 3.6670800000 1.7647900000 0.6467550000
H 4.1167700000 1.3137000000 -1.0360300000
H 5.1071100000 0.8170120000 0.3829150000
H 1.9772800000 0.0713326000 -1.4305500000
H -4.7137900000 -1.8876400000 0.5015120000
H -3.3750400000 1.0046800000 -0.4153260000
H -1.9262000000 0.2427590000 -1.1046900000
H -2.4809400000 1.1858400000 1.7169200000
H -1.1671800000 0.0020863100 1.3933200000
H -0.3953810000 2.4380900000 1.4374900000
H -2.4167800000 3.4576000000 0.2639080000
H -1.6162300000 2.9819200000 -1.1567000000
H 0.9379630000 0.6110120000 1.2828400000
N -1.5191200000 3.1062000000 -0.1619180000
N 1.1129900000 0.7528080000 0.2939230000
O 1.7040000000 -2.4019800000 -1.1869500000
O 0.2419280000 1.7604800000 -1.5721800000
O -2.6401800000 -2.1252600000 -0.1666190000
O -4.4614100000 -0.9685580000 0.4477300000
O -0.0001658770 -1.7671100000 0.0416417000
