15
0 1
C 1.3396000000 0.7232370000 -0.0661100000
C -0.9441810000 0.7273400000 0.0359752000
C -0.9639280000 -0.6967060000 -0.0845601000
C 1.2964700000 -0.7469890000 -0.0181790000
H 2.4963500000 2.3832300000 -0.1254030000
H 3.3307300000 0.8838010000 -0.5521040000
H 2.3750400000 -2.3829400000 0.1468200000
H 3.0973100000 -1.0116400000 0.8344080000
N 2.5470400000 1.3465900000 -0.0438445000
N 0.2478840000 1.3837000000 0.0282461000
N -2.2082900000 1.1514400000 0.1425590000
N -2.2154500000 -1.0930000000 -0.0955858000
N 0.2018970000 -1.4033900000 -0.0920818000
N 2.5153800000 -1.3575800000 0.1017300000
O -2.9108100000 -0.0135057000 0.0257959000
