33
0 1
C 2.3927000000 0.3999060000 0.8231200000
C -3.0659600000 0.4559710000 -0.8310670000
C -1.7457800000 1.2547400000 -0.7045380000
C -0.5284090000 -0.7053050000 -0.7602840000
C -3.6227700000 -0.0545214000 0.4683190000
C 4.0531300000 -1.3969500000 0.6319190000
C 2.9794600000 -0.6302670000 -0.1809540000
C 1.9057400000 1.5620900000 -0.0408712000
C -0.4897230000 0.6314160000 -0.0368191000
H -0.7140140000 0.6458040000 1.0370000000
H -1.1330200000 -2.3682700000 -0.8783740000
H -3.5509700000 0.0005161830 2.2516500000
H -3.1264100000 -0.4560100000 -1.4225400000
H -3.9327400000 0.9755060000 -1.2224400000
H -1.5432300000 1.4165400000 -1.7809300000
H -1.9044400000 2.2780500000 -0.2979110000
H 0.3280310000 2.3673900000 -0.9685490000
H 3.6841600000 -1.7753200000 1.6084000000
H 4.2676400000 -2.2905800000 -0.0023984000
H 5.0411000000 -0.8351620000 0.8746330000
H 1.6719700000 -1.4202200000 -1.5117000000
H 3.2994800000 -0.1752800000 -1.1052800000
H 3.2706200000 0.7530910000 1.3268900000
H 1.7547300000 -0.7835570000 2.3754500000
H 0.8492320000 -0.8056380000 1.1485400000
N 1.4359600000 -0.1620550000 1.7046300000
N 0.5995400000 1.5334700000 -0.5194360000
O 2.6527400000 2.5382000000 -0.2125290000
O 1.9876600000 -1.6051400000 -0.6168570000
O -0.0960197000 -0.8443300000 -1.8634800000
O -4.2562500000 -1.0873500000 0.5826300000
O -3.2757200000 0.6360330000 1.5528900000
O -1.2350300000 -1.6660700000 -0.1853760000
