27
0 1
C 2.1982800000 -2.3765100000 -0.2358380000
C 1.6624000000 -0.9840630000 -0.5483310000
C 0.0909337000 0.8221170000 -0.1965280000
C 1.2332900000 1.8106000000 0.1972010000
C -1.1730900000 1.3084100000 0.4409880000
C -2.2928800000 0.3694700000 0.3218780000
C -3.4787900000 0.6148690000 -0.3744330000
C -3.2813400000 -1.4911000000 0.1308230000
H 2.4459700000 3.1154000000 -0.5157900000
H -5.0205600000 -0.8540530000 -0.7668860000
H -3.4745900000 -2.6159800000 0.1074730000
H -3.7360900000 1.5892100000 -0.8180070000
H -1.4033000000 2.3755000000 0.1798370000
H -0.8316720000 1.4327000000 1.4565100000
H -0.0357832000 0.6547290000 -1.2868400000
H 0.0247434000 -1.1385600000 0.6307640000
H 2.4274900000 -2.8659100000 -1.1554600000
H 1.4333500000 -3.0244200000 0.4082540000
H 3.3046300000 -2.2533000000 1.5537600000
H 3.9455900000 -1.3110200000 0.2474330000
N 3.4376700000 -2.1233500000 0.5760620000
N 0.6598700000 -0.4440050000 0.2651670000
N -2.1772900000 -0.9734350000 0.5262730000
N -4.1150600000 -0.6608390000 -0.3628060000
O 2.3527100000 -0.1957930000 -1.1823500000
O 1.7097700000 1.8990800000 1.3220200000
O 1.7539000000 2.5297500000 -0.8257280000
