13
0 1
C 1.2759800000 0.0572340000 -0.0827287000
C 0.3974160000 1.3029500000 -0.0554605000
C -1.7465400000 -0.0604861000 0.0305004000
C 0.5573900000 -1.2676700000 -0.0192202000
H 3.0967000000 -0.5422320000 0.0382960000
H -1.5624700000 1.9687300000 0.4998530000
H -1.3304100000 -2.0624500000 -0.2210320000
N 2.5443900000 0.2742730000 -0.1342190000
N -1.0917300000 1.1428900000 0.1070610000
N -0.8624560000 -1.2115000000 -0.0930226000
O 0.7716340000 2.4286100000 0.0487125000
O -2.8960800000 -0.2587830000 -0.0841904000
O 1.2193500000 -2.2943100000 0.1961780000
