16
0 1
C -0.7906320000 0.6748910000 -0.6575050000
C -1.2595200000 -0.6543640000 -0.0782296000
C 0.7607320000 0.8579670000 -0.8629100000
C 1.6418100000 0.0720646000 0.1165890000
H -1.9337100000 2.3969000000 -0.3541390000
H -1.7225400000 1.3484000000 0.9000520000
H -1.2321000000 0.7058430000 -1.6482600000
H 1.0970500000 0.5571230000 -1.8442200000
H 0.9317900000 1.8767700000 -0.6411220000
H 1.8377800000 -0.4174100000 1.9568300000
H -1.0903600000 -2.5831600000 -0.3493240000
N -1.2415200000 1.7804600000 0.1371000000
O -2.1341400000 -0.6935640000 0.8080990000
O 2.6353700000 -0.5150860000 -0.3105610000
O 1.2836200000 0.1820660000 1.4023000000
O -0.6987950000 -1.7298000000 -0.6607400000
