27
0 1
C 1.9291300000 0.6565540000 0.1604940000
C 0.4983770000 1.1079000000 -0.0037434400
C 2.1443000000 -0.5763490000 -0.6146310000
C 3.6647400000 -0.7742910000 -0.8158910000
C -1.8839100000 0.5467850000 0.1518090000
C -2.7444400000 -0.6752160000 0.2624500000
C -2.2741400000 1.3156600000 -1.1804200000
H -1.5768900000 -1.4916900000 -1.0660500000
H -3.2895900000 1.3961700000 -1.2445000000
H -1.8653700000 2.3338200000 -1.1704600000
H -1.8862600000 0.7668110000 -2.1013000000
H -2.0778600000 1.2092200000 0.9990710000
H -0.2049230000 -0.7943690000 0.5116440000
H 3.9102700000 -1.7490800000 -1.1759700000
H 4.1014400000 0.0231869000 -1.4080400000
H 4.0867100000 -0.6087980000 0.2024510000
H 1.8719400000 -1.5281300000 1.0028800000
H 1.6774200000 -0.5147450000 -1.6488000000
H 2.4895200000 1.4272800000 -0.3200820000
H 3.2601000000 0.8976010000 1.6376000000
H 1.6423500000 0.7674640000 2.2258200000
N 2.3618300000 0.3957510000 1.5528400000
N -0.4747950000 0.1520260000 0.1284670000
O 0.1715560000 2.2902900000 -0.0674018000
O 1.6468500000 -1.7227800000 0.0821290000
O -3.6164100000 -0.8000010000 1.0579400000
O -2.3710400000 -1.7144400000 -0.5693910000
