18
0 1
C 3.3344500000 -0.6350850000 0.0224867000
C 0.9585910000 -0.0943894000 -0.0066521600
C 0.2428710000 2.1006600000 0.0176783000
C -1.3220300000 0.5525840000 -0.0191677000
C -2.2823700000 -1.4262100000 0.0106824000
C -0.4002060000 -0.4710940000 0.0014926400
H -3.0788200000 -2.1548800000 -0.0013576600
H -3.4305600000 0.3918720000 -0.0129485000
H 0.5559450000 3.1482500000 0.0447459000
H 3.5346500000 0.1324690000 -0.7520930000
H 3.9491100000 -1.5112300000 -0.1993660000
H 3.5987800000 -0.2289780000 1.0138500000
H 1.6939600000 -1.9853900000 -0.0423519000
N -2.5476200000 -0.0804173000 0.0027974400
N 1.9494300000 -1.0062400000 -0.0363959000
N 1.2525600000 1.2177400000 -0.0043250600
N -1.0680000000 1.8703900000 -0.0109466000
N -1.0164900000 -1.7087400000 0.0189264000
