26
0 1
C -0.9240750000 1.9830500000 -0.0635303000
C 0.1058790000 1.0727900000 0.6495100000
C -1.9535400000 1.0182300000 -0.6740410000
C -2.5803000000 0.0547250000 0.2766890000
C -2.4049600000 -1.3923100000 -0.0608070000
C 2.4658600000 0.2755070000 0.7631090000
C 2.8843500000 -0.8800790000 -0.1033770000
H 1.0750200000 -1.2077200000 -0.6466180000
H 3.4200500000 0.8713380000 0.9044680000
H 1.9598800000 -0.0832952000 1.6119300000
H 1.4457100000 1.6094200000 -0.7702320000
H -1.2902800000 -2.6681100000 -0.6492210000
H -2.1341500000 0.1788960000 1.2798500000
H -3.6544900000 0.2631730000 0.3133100000
H -2.6919200000 1.7424800000 -1.2188300000
H -1.5631800000 0.5573420000 -1.5478900000
H -1.5414300000 2.5791200000 0.7089160000
H 0.6760380000 3.1977900000 -0.5999350000
H -0.7875250000 3.5592300000 -1.3614600000
N -0.1706870000 2.7929700000 -1.0144900000
N 1.3926700000 1.1534700000 0.1433930000
O -0.1463040000 0.5091640000 1.7717000000
O -3.1255300000 -2.3110900000 0.2889570000
O -1.2354400000 -1.6774000000 -0.6495280000
O 4.0329000000 -1.1711800000 -0.3722180000
O 1.8460100000 -1.7265400000 -0.6203970000
