8
0 1
C -0.0358745000 -0.5973140000 0.1748630000
C 0.0423325000 0.8979640000 0.0287665000
N -2.2396000000 -0.4962140000 -0.1198280000
N -1.2359700000 -1.1332900000 0.0186479000
N 1.1865700000 -1.1611100000 0.0432972000
N 2.2177600000 -0.5740980000 -0.1230440000
O 1.1759400000 1.3588100000 -0.0047043600
O -1.1184500000 1.3598400000 0.0102940000
