21
0 1
H -1.7719000000 3.5536700000 -0.1820870000
H 0.4825630000 2.0643200000 0.8048460000
H 0.3390520000 0.9485060000 -0.1716290000
H -3.0354200000 -0.1942230000 -0.1051620000
H -3.9068200000 1.2083000000 -0.1755910000
H -1.8219600000 2.0311300000 0.1338170000
H -1.5269700000 -2.0578300000 -0.0065203800
H 2.8996700000 -0.8271720000 -0.6309390000
H -2.9146100000 -2.6338200000 0.2220640000
H 2.8544800000 1.0503700000 -0.1936540000
H 4.2664900000 1.3585000000 -0.5753070000
H 0.3127690000 -2.4853700000 1.0852000000
H 0.7474840000 -2.3571100000 -0.3359160000
H 1.5550900000 -0.6084410000 0.0813581000
O -1.2251900000 2.8566300000 0.1614830000
O 2.1384800000 -1.3142500000 -0.1364740000
O -3.0386100000 0.7450990000 -0.3450480000
O 3.7473600000 0.6862330000 -0.1461870000
O 1.0021800000 1.4002400000 0.3143650000
O -2.4711200000 -1.8544700000 -0.0593250000
O 0.0368999000 -2.6508400000 0.2173780000
