16
0 1
C -0.8695100000 1.3009100000 -0.0215805000
C 0.2861930000 0.6060150000 -0.0165220000
C 2.4458400000 -0.2040710000 0.0079620100
C 0.2668090000 -0.8159130000 -0.0583150000
C -1.9540700000 -0.9436460000 -0.0243913000
H -1.7677800000 2.8878700000 0.5518700000
H 2.0040200000 1.8487600000 -0.0640190000
H 1.7164900000 -2.2713300000 -0.1001410000
H -2.9103700000 0.9058240000 -0.0249493000
N 1.6650000000 0.9302010000 0.0455882000
N 1.5572700000 -1.2564800000 -0.0271316000
N -0.7741850000 -1.5874400000 -0.1409500000
N -1.9883100000 0.4844680000 -0.0503766000
O -1.0602300000 2.6160100000 -0.0733826000
O 3.6893400000 -0.2295250000 0.0912000000
O -3.0431500000 -1.5147600000 0.1727340000
