9
0 1
C -1.4303900000 -0.2861240000 -0.0138435000
C 0.0903815000 1.2881800000 0.0093194500
C 0.7221760000 0.0927975000 -0.1221540000
C 2.1030500000 -0.2080390000 -0.0456016000
H 0.3932920000 2.2809700000 0.1783440000
N 3.2175000000 -0.3900760000 0.1053280000
O -2.5064000000 -0.8026150000 0.0829674000
O -1.2471700000 1.0744500000 -0.0097048000
O -0.2248090000 -0.8807490000 -0.0585078000
