10
0 1
C -0.0065659800 0.7184780000 0.0241692000
H 2.7475200000 0.1885910000 -0.7557980000
H -2.7716700000 0.1481830000 0.7727400000
N 1.0645400000 -0.1703290000 -0.0168240000
N 0.6482500000 -1.4285200000 0.0045225300
N -0.6169380000 -1.4432600000 -0.0107152000
N -1.0400500000 -0.1896870000 0.0162681000
O 2.3332800000 0.1663990000 0.1147940000
O -2.3567200000 0.1473260000 -0.1194560000
O -0.0174452000 1.9331400000 -0.0096779300
