34
0 1
C 2.5853200000 -0.7996620000 0.3876060000
C -0.9219210000 3.0582100000 -0.1323950000
C -1.6660600000 1.1535400000 0.5288840000
C -1.7550300000 -0.1477900000 1.2740400000
C -2.0335200000 -1.8295600000 -0.6032740000
C -2.7144100000 1.7293700000 -0.1851300000
C 4.3440700000 0.7418180000 -0.5757940000
C 2.9621200000 0.6682810000 0.0759673000
C 1.1432200000 -0.9242570000 0.9295460000
C -1.1618000000 -1.3534100000 0.5313890000
H -1.0529600000 -2.1858600000 1.2027200000
H -3.5948300000 -2.6758400000 -0.9295890000
H -2.6758900000 3.6967200000 -1.1980500000
H -0.1674580000 3.7507900000 -0.3643070000
H -3.7876700000 1.3822500000 -0.3065610000
H -2.7850900000 -0.3299070000 1.5071900000
H -1.2917300000 -0.0274843000 2.2604900000
H 0.2894100000 -1.1675700000 -1.0096500000
H 5.0755900000 0.4869930000 0.2267400000
H 4.4906400000 1.7660800000 -0.9541900000
H 1.1282600000 0.9811360000 -0.4401450000
H 2.7227500000 1.3458500000 0.9777290000
H 3.2082000000 -1.2378700000 1.2027200000
H 2.5410700000 -2.5053200000 -0.7367120000
H 2.2015700000 -1.0499500000 -1.5709800000
H 4.5447500000 0.0938957000 -1.4407100000
N 2.7161400000 -1.5534900000 -0.8355520000
N 0.1590730000 -1.0765500000 0.0127726000
N -0.5084000000 1.9470200000 0.4529690000
N -2.2649600000 2.9404500000 -0.5661090000
O -1.6729800000 -2.0578200000 -1.7498600000
O 0.8988960000 -0.9007950000 2.1096000000
O 2.0008400000 1.1286200000 -0.8113370000
O -3.2581900000 -2.1581500000 -0.2059340000
