14
0 1
C 1.2988300000 -0.0009943400 0.0924281000
C -0.6266300000 0.7212160000 0.1019050000
H 3.0953500000 -0.8524310000 -0.4731000000
H 3.2699600000 0.7555230000 -0.4162580000
H -2.4335100000 1.4177900000 0.6894070000
H -1.6433200000 2.2235300000 -0.6072890000
H -2.0440000000 -1.8185100000 0.7800310000
H -2.3869600000 -1.0258600000 -0.6801140000
N 2.7016000000 0.0055867600 -0.0169123000
N 0.5615510000 1.1919700000 0.0843079000
N -1.8034600000 1.3490600000 -0.1069630000
N -0.6397640000 -0.6264420000 0.0678307000
N -1.6839200000 -1.5193200000 -0.1549650000
N 0.5938940000 -1.1182000000 0.0611770000
