21
0 1
C -3.4674600000 0.5134260000 0.4512480000
C -1.1361200000 0.0281770000 -0.0689676000
C 0.3700540000 1.7891600000 -0.1808910000
C 1.2276500000 -0.3038420000 0.1385080000
C 3.5383000000 -0.5273160000 0.2499630000
C -0.0972927000 -0.8557780000 0.0584888000
H 3.7729500000 -0.0748265000 -0.7197190000
H 4.1259500000 -1.4226400000 0.3948390000
H 3.6595900000 0.1556230000 1.1176400000
H 1.4713300000 3.4518600000 -0.5557820000
H -3.8168000000 0.8401920000 -0.5392930000
H -4.2227300000 -0.0928952000 0.9471010000
H -3.1476100000 1.4146000000 1.0221000000
H -0.2529310000 3.6803400000 -0.6255150000
N -0.9295910000 1.3701900000 -0.1259790000
N 0.5012990000 3.1613700000 -0.2410470000
N 1.4808800000 1.0389600000 -0.0505140000
N -0.1827070000 -2.3030100000 -0.0527871000
O 2.2069200000 -1.1418500000 0.2450010000
O -2.3719500000 -0.4151040000 0.2036700000
O -1.1211900000 -2.7790100000 -0.6535690000
