16
0 1
C -1.9081500000 -0.7423040000 0.5208820000
C -0.0988478000 0.7541870000 0.0853405000
C 2.3376000000 0.0540833000 0.2148670000
H -2.3431200000 0.3691870000 -0.9673870000
H -2.1110900000 -1.7316200000 0.9726420000
H -2.3923400000 -0.1024040000 1.2382100000
H 0.2351290000 -1.2402700000 0.4516170000
H 1.4508100000 1.9084400000 -0.3912220000
H 3.2812200000 0.5020870000 -0.0821946000
H 2.3521300000 -0.1326610000 1.3186200000
H 2.0229700000 -1.1928700000 -1.2340600000
N -0.4888470000 -0.5050790000 0.3957810000
N 1.2419700000 0.9173980000 -0.1854130000
O -2.5352300000 -0.5811390000 -0.7042030000
O -0.9135820000 1.6461200000 0.0326514000
O 2.2299100000 -1.2727200000 -0.2916160000
