24
0 1
C 1.3695800000 -0.7504530000 -0.0165764000
C -1.0889700000 -0.7147630000 0.0418545000
C -2.3068600000 -1.3759000000 -0.0079828600
C -3.5166600000 -0.6853800000 -0.0171052000
C -3.4900900000 0.7163590000 -0.0147688000
C -2.2802400000 1.3808300000 -0.0011065900
C -1.0717200000 0.6839350000 0.0123089000
C 1.3855200000 0.7459120000 -0.0028321600
H 3.1762300000 3.2026600000 0.2963010000
H 2.1022700000 3.1371400000 -0.8786330000
H 0.1860420000 2.3373500000 0.1457000000
H -2.2320800000 2.4775900000 0.0167319000
H -4.3984900000 1.3327800000 -0.0094558600
H -2.2866000000 -2.4478100000 -0.0372321000
H 0.2045820000 -2.3643700000 -0.1348700000
H 3.1809400000 -3.2319300000 -0.2405640000
H 2.0448400000 -3.0485600000 0.9040110000
H -4.4650400000 -1.2244600000 -0.0123700000
N 2.4989500000 1.3903200000 0.0567061000
N 2.2603300000 -2.8049300000 -0.0577722000
N 2.4757200000 -1.3838800000 -0.1194020000
N 0.1434910000 -1.3760200000 0.0961805000
N 0.1443800000 1.3524800000 -0.0630192000
N 2.2605400000 2.7972300000 0.0855402000
