8
0 1
H -3.0412400000 -0.4710480000 0.5656730000
H -2.0311200000 1.1071400000 -1.0089200000
H -0.1431260000 -0.2179090000 0.6582190000
N 1.5073000000 -0.4647570000 -0.2172450000
O -2.3296900000 -0.5860570000 -0.1016810000
O -1.6141100000 0.6330710000 -0.1630160000
O 0.7446890000 0.2297770000 0.7420430000
O 2.5321500000 0.0775978000 -0.3141270000
