37
0 1
C 2.2395400000 -0.0937338000 -0.8269400000
C -2.4602200000 1.2176500000 -0.5176260000
C -2.7989500000 -0.3211850000 -0.6734710000
C -1.6722400000 -1.3217400000 -0.9813900000
C -0.7517370000 -1.4391300000 1.3205800000
C -3.7821000000 2.0651100000 -0.6949380000
C 3.0131700000 1.7881500000 0.7302100000
C 2.2932200000 0.4196170000 0.5902570000
C 1.8486600000 -1.6279800000 -0.9443100000
C -0.4389130000 -1.1527200000 -0.0379201000
H -3.4940400000 -0.3192280000 -1.4996500000
H -1.4382800000 -0.9688900000 2.9251300000
H -5.6468200000 1.7781400000 0.1946110000
H -4.3301200000 1.3424900000 1.0396100000
H -3.6975800000 3.1285000000 -0.1822460000
H -4.0596800000 2.1544200000 -1.7607400000
H -1.9238300000 1.4463400000 0.4314610000
H -1.7969700000 1.4448900000 -1.4043000000
H -3.3781600000 -0.5239380000 0.1787470000
H -1.4371300000 -1.3946800000 -2.0168000000
H 0.4955110000 0.6230390000 -1.6117300000
H -0.0548650000 -0.1308930000 0.0371123000
H 0.5741670000 -2.9781700000 -0.2508030000
H 1.9452800000 2.2595400000 -0.8396860000
H 1.2311400000 0.4647840000 1.0194200000
H 2.7872900000 -0.2180820000 1.3786800000
H 3.2823000000 -0.0680671000 -1.2627100000
H 1.7771100000 0.8343070000 -2.6479800000
H -2.1359300000 -2.3049800000 -0.7125150000
N 1.4688800000 0.8346040000 -1.6575900000
N 0.6443570000 -2.0139100000 -0.4608150000
N -4.7671100000 1.2348700000 0.1316730000
O 2.3944800000 2.7367300000 -0.0667037000
O -0.7935320000 -2.5109500000 1.9159100000
O 2.6518500000 -2.4272000000 -1.3274000000
O 3.8891600000 2.0809300000 1.4794900000
O -1.2750500000 -0.3998600000 2.1368000000
