16
0 1
C 1.6494300000 -0.5194060000 -0.0200412000
C 0.2580800000 1.3317100000 -0.0492485000
C -0.8728820000 0.4693180000 -0.0609510000
C -2.2605400000 0.4282800000 -0.0764016000
H 3.1529600000 -1.9040300000 -0.2649050000
H 3.6650300000 -0.2469070000 -0.1652260000
H 0.9364220000 3.1568000000 0.2588980000
H -0.8133620000 3.0246500000 0.2152750000
H -2.9615000000 1.2601500000 -0.1104110000
N 2.9637300000 -0.9407640000 0.0322231000
N 1.4763800000 0.8560990000 -0.0048363500
N 0.1074430000 2.6573000000 0.0185447000
N -2.6523400000 -0.8459310000 0.0153475000
N -1.5877600000 -1.6476400000 0.0440923000
N -0.5428050000 -0.8725520000 0.0339935000
N 0.7176320000 -1.4279600000 0.0472386000
