30
0 1
C -2.3316200000 -0.7912110000 -0.2812710000
C -0.7711260000 -0.7757840000 -0.0943258000
C -2.9151300000 0.6404580000 -0.0678606000
C 1.2742900000 0.4243250000 -0.6608260000
C 2.3059300000 -0.7709760000 -0.6673610000
C 1.6145700000 1.3084000000 0.5682350000
C 0.7854560000 2.6098900000 0.4588150000
C 1.3749700000 0.7138080000 1.9433200000
H 1.0137900000 -1.9127000000 0.1834570000
H 2.0908700000 -0.0978246000 2.1719600000
H 0.3361870000 0.3261570000 1.9438800000
H 1.4163500000 1.5270400000 2.7004500000
H 0.9626690000 3.3996500000 1.1728600000
H -0.2715640000 2.3374300000 0.6150340000
H 0.9307980000 3.0646200000 -0.5313960000
H 2.6505300000 1.4297000000 0.4296940000
H -0.6526490000 0.7447340000 -1.3297300000
H -2.7107600000 2.4141000000 -1.0161600000
H -2.5012200000 0.9756490000 0.9212800000
H -3.9937600000 0.4924330000 -0.0249813000
H -2.6948600000 -1.1609900000 -1.2707700000
H -2.3736300000 -2.5230000000 0.7479020000
H -2.4947300000 -1.2288800000 1.5813500000
H 1.5305400000 1.0327400000 -1.5456600000
N -2.8873900000 -1.6058600000 0.7649140000
N -0.0798152000 0.0467477000 -0.9024370000
O 3.4496400000 -0.5203500000 -1.0003400000
O -0.3216960000 -1.4819400000 0.7805010000
O -2.5985700000 1.4641800000 -1.2049400000
O 1.9091100000 -1.9694500000 -0.1975750000
