29
0 1
C 1.5922700000 -1.8442500000 0.3062150000
C 0.1589450000 -1.3306700000 -0.0264468000
C 2.6716800000 -0.8986140000 -0.1663700000
C 2.3440800000 0.4815340000 0.1328010000
C -1.5657200000 0.2532000000 0.5694220000
C -2.7627600000 -0.6667740000 0.2529170000
C -1.4456800000 1.3023600000 -0.5237130000
C -0.3704520000 2.3006500000 -0.2910080000
H -1.8440600000 -1.6993700000 -1.0779400000
H 0.6949120000 3.6270000000 -0.9524480000
H -2.4078400000 1.8845800000 -0.4822950000
H -1.3344100000 0.8494390000 -1.5344500000
H -1.7215100000 0.7549410000 1.5152600000
H 0.2898690000 -0.1011090000 1.6074000000
H 2.8249100000 -0.9800630000 -1.2629000000
H 3.6619400000 -1.2026600000 0.2875430000
H 1.7264800000 -1.9036200000 1.3794200000
H 1.3093000000 -3.2564900000 -1.1176000000
H 1.2901100000 -3.8164400000 0.3735610000
H 1.8043200000 1.7294300000 1.6337600000
N 1.7693200000 -3.1839400000 -0.2222880000
N -0.3481690000 -0.4583100000 0.8121190000
O 0.0342019000 2.9982400000 -1.2877700000
O -0.3205120000 -1.5349100000 -1.2008700000
O 2.1085100000 1.3113000000 -0.7975880000
O 2.1158700000 0.7867640000 1.4869300000
O -3.7617700000 -0.4572420000 0.9199340000
O 0.0662064000 2.5036400000 0.8365770000
O -2.7395400000 -1.6046000000 -0.7098460000
