18
0 1
H -2.3498900000 -0.0753274000 -0.2058540000
H -1.0980800000 -1.8925400000 -0.0607574000
H -0.3560280000 -2.9729800000 -0.9503070000
H 2.3645600000 -2.2185900000 0.7744100000
H 1.0940300000 -1.7439600000 -0.0318839000
H 0.7853460000 3.2800300000 0.6557900000
H -2.7057600000 -0.9479770000 1.1506300000
H 1.0320100000 1.7787500000 0.0161624000
H 3.1812400000 1.2907700000 -0.5040540000
H 2.5523300000 -0.0505771000 0.0116522000
H -1.1603500000 2.1008800000 -0.1100540000
H -2.6218300000 2.2598900000 -0.5867970000
O 2.1481100000 -1.7077300000 -0.0122668000
O 2.3418600000 1.0139300000 0.0478108000
O -0.3316920000 -2.5760000000 -0.0448456000
O 0.4824330000 2.5825900000 -0.0454235000
O -2.6412200000 -1.0403600000 0.0547635000
O -2.0891900000 1.6265200000 -0.0199058000
