7
0 1
H -1.9320000000 -0.8810240000 0.4912600000
H -2.6108700000 0.4395620000 0.1673810000
H -0.0542189000 0.7080070000 -0.1672140000
H 1.6878400000 -0.7699230000 0.7189600000
O -1.8370200000 -0.1038250000 -0.0768367000
O 0.8950800000 0.7563850000 0.0572154000
O 1.3056000000 -0.5896380000 -0.1316770000
