16
0 1
C 0.6246440000 -0.9780820000 -0.0232025000
C -0.6303200000 -0.4333360000 -0.9001980000
C -1.1954000000 0.9087210000 -0.2201580000
C 1.6617900000 0.0986600000 0.1992840000
H -0.6681340000 -1.9446800000 0.9501490000
H 1.0701500000 -1.8007800000 -0.5929680000
H -0.4264820000 -0.3364240000 -1.9346800000
H -2.0672900000 -1.1294900000 -0.0579657000
H -2.4041600000 1.4110100000 1.0408300000
H 2.5426900000 -0.5718030000 -1.2059900000
O 0.1143710000 -1.4645100000 1.2305100000
O -1.5562400000 -1.4902600000 -0.7582730000
O -2.0417200000 0.6049060000 0.6703820000
O -0.7869740000 2.0193400000 -0.4903170000
O 2.6963500000 0.2076250000 -0.7156080000
O 1.4728300000 0.9724410000 0.9965930000
