11
0 1
C 0.4806260000 0.1127580000 -0.0640741000
H -1.9452000000 0.4369090000 0.9508430000
H -2.1929800000 0.3713670000 -0.7380850000
H -0.6177180000 -1.6587600000 -0.2189710000
H 1.7052600000 -1.6147300000 0.1770750000
H 2.5406300000 -0.0529513000 0.1479770000
H -0.3451520000 1.8700300000 -0.1775390000
N -1.9112000000 -0.1660940000 0.0913907000
N -0.6401910000 -0.6379110000 -0.0885778000
N 1.6679700000 -0.6059310000 0.0311633000
N 0.5936220000 1.4058800000 0.0007587290
