10
0 1
C 0.8217310000 -0.0715727000 -0.0207667000
C -1.0585500000 1.1394400000 -0.0325797000
C -1.1043700000 -1.0609400000 0.0228677000
H 2.4951700000 0.7895370000 0.3287040000
H -1.5079500000 2.1000000000 0.0507566000
H -1.6829000000 -1.9797200000 0.1116460000
N 0.2983980000 1.1167300000 -0.0354531000
N -1.7551100000 0.0602405000 0.0399917000
N 0.1795660000 -1.2061500000 -0.0568503000
O 2.2103600000 -0.0933986000 0.0072435600
