20
0 1
C 0.9644560000 0.1202370000 0.4720750000
C 2.3459400000 -0.3195620000 -0.1294150000
C -0.0304143000 -0.8733830000 0.0224858000
C -1.4093200000 -0.8596410000 0.7108630000
C -2.5584100000 -0.0461209000 0.0152783000
H 2.8649000000 1.5050500000 0.2997100000
H -2.7672500000 1.5938200000 -1.2118100000
H -1.6882000000 -1.8721600000 0.8109170000
H -1.2877800000 -0.4286200000 1.7610400000
H -1.3159500000 1.4861400000 -0.2830150000
H 1.0298500000 2.1888900000 0.6297870000
H 0.7960540000 1.6736000000 -0.8548230000
H 1.1428200000 0.0859875000 1.5678700000
H -0.0399311000 -0.7184720000 -1.0555500000
H 0.3952860000 -1.8975400000 -0.0479620000
N 0.5063440000 1.4821700000 0.0811010000
N -2.3135700000 1.2622300000 -0.3811610000
O -3.6012600000 -0.6169090000 -0.2187190000
O 2.5285500000 -1.3668000000 -0.6649530000
O 3.2786200000 0.6141180000 0.1257390000
