33
0 1
C -2.5722300000 -0.7920160000 0.0586669000
C 1.8171700000 2.0071100000 -0.0902533000
C 2.0111400000 -0.1615360000 -1.4089000000
C 1.6899900000 -1.4582300000 0.6669350000
C 1.1311000000 -1.2091900000 -0.7139250000
C 2.6914400000 0.9846080000 -0.6896560000
C -2.9792700000 1.5488900000 -0.4584030000
C -3.1695200000 0.1346190000 -1.0278900000
C -1.2223800000 -1.4676800000 -0.3045030000
C -3.1407400000 1.2546100000 1.0285500000
H 1.1169200000 -2.1129000000 -1.2785100000
H 2.8658000000 -2.5542500000 1.5724200000
H 1.6806800000 3.5308600000 0.7200670000
H 3.4031900000 1.4817500000 -1.3630500000
H 3.3708000000 0.6373550000 0.1102560000
H 2.8747700000 -0.7283800000 -1.8305000000
H 1.4959300000 0.2442320000 -2.2772200000
H -0.4094270000 0.2688940000 -0.8778490000
H -4.2259000000 1.1854500000 1.2704400000
H -3.7509600000 2.2018800000 -0.8261900000
H -2.0092500000 1.9737000000 -0.7633540000
H -2.6138600000 -0.0386390000 -1.9411000000
H -4.2183700000 -0.1586120000 -1.1891900000
H -3.1916500000 -1.6522200000 0.2537910000
H -1.4593800000 0.2929250000 1.2996600000
H -2.8706600000 2.0901200000 1.7048600000
N -2.4382900000 0.0338147000 1.2808900000
N -0.2029660000 -0.6551380000 -0.5584930000
O 2.4861500000 3.0519300000 0.4093680000
O -1.1212900000 -2.6863300000 -0.3962810000
O 1.5469100000 -0.7733410000 1.6463000000
O 0.6143170000 1.9607500000 -0.0538399000
O 2.5851800000 -2.4730000000 0.6438220000
