34
0 1
C 2.6826800000 -1.4546900000 -0.1743240000
C -3.9110100000 -1.2064900000 0.5777240000
C -2.9823600000 -0.5538370000 1.4473000000
C -2.0476200000 0.3233540000 0.9608170000
C -2.8195000000 -0.1588210000 -1.2991600000
C -1.9422000000 0.5269190000 -0.4111980000
C -3.8278000000 -1.0050700000 -0.8087750000
C 0.7429030000 1.9935400000 0.5553120000
C 0.3800690000 1.3824400000 -0.8002400000
C 1.7663000000 -2.6379700000 -0.3077360000
C 2.1386700000 -0.2234560000 -0.8971040000
C -1.1305500000 1.5966600000 -0.9970360000
H -1.2300200000 1.5764000000 -2.0664300000
H 0.9141670000 3.5142500000 1.4888300000
H -4.6006300000 -1.8393000000 1.0571900000
H -3.0688400000 -0.7147800000 2.5220600000
H -4.5509600000 -1.5388600000 -1.4662800000
H -1.3470900000 0.8249280000 1.6226700000
H -2.7347600000 -0.1004530000 -2.3602200000
H -1.4326600000 2.5927300000 -0.6295270000
H 1.5254800000 -2.7345300000 -1.3741200000
H 0.3789360000 -0.5777200000 -0.0637300000
H 0.9963290000 -2.0319000000 1.2463400000
H 2.3680700000 -3.5456700000 0.0286407000
H 3.6772500000 -1.6369400000 -0.6433350000
H 3.6589300000 -1.4175200000 1.6605600000
H 2.6518800000 -0.1319850000 1.5364500000
H 0.9679280000 1.9224200000 -1.5219400000
N 2.7634900000 -1.1338900000 1.3074900000
N 0.7710400000 -0.0367493000 -0.8291900000
O 1.3123800000 1.4539000000 1.4821300000
O 2.8643100000 0.5552170000 -1.4807300000
O 0.5937050000 -2.4919400000 0.4648940000
O 0.5779640000 3.3000600000 0.6013650000
