35
0 1
C -0.2468580000 -2.7454500000 -0.0384922000
C -3.1074200000 -0.6008650000 0.2264640000
C -1.7356400000 1.0261800000 -0.8820440000
C -1.2225500000 2.4605000000 -0.7650390000
C 0.4863110000 2.1790000000 0.8868300000
C -2.2244500000 -1.7096400000 0.7516270000
C 2.8432400000 0.1320870000 0.4436650000
C 3.0831700000 -1.2217300000 -0.1963350000
C 0.7947150000 -1.7029100000 -0.4092800000
C 1.8175200000 2.2135100000 0.0533310000
H 0.2246260000 1.1694000000 1.0419600000
H -1.5365500000 -1.3802700000 1.6109400000
H -2.8477100000 -2.4678900000 1.1676600000
H -4.1792300000 -0.5443790000 0.7357380000
H -3.4374800000 -0.7912410000 -0.8655460000
H -0.8326100000 0.3340630000 -1.0304600000
H -2.4222100000 0.8995680000 -1.6880700000
H -2.1254300000 3.0682500000 -1.0070700000
H -0.5526060000 2.5031500000 -1.6394500000
H 0.6961710000 2.5365600000 1.8603100000
H 2.4352700000 -0.1629330000 1.4371600000
H 2.6447500000 2.4895500000 0.6627110000
H 3.7872000000 0.6309630000 0.6450620000
H 3.3381300000 -1.1707900000 -1.2809800000
H 3.8726500000 -1.7303400000 0.3186670000
H 0.7894110000 -1.3884800000 -1.4374100000
H 0.4503980000 -0.7913150000 0.1245080000
H -0.2885160000 -3.5672000000 -0.7816770000
H -0.1114530000 -3.0802800000 0.9722280000
H 1.6779200000 2.8964400000 -0.7799500000
O -2.4956200000 0.6717620000 0.3395340000
O 2.0489700000 -2.1997700000 0.0002642990
O 2.0408900000 0.9154070000 -0.4411190000
O -0.5867330000 2.9015600000 0.3451670000
O -1.5713700000 -2.2435600000 -0.3051820000
