15
0 1
C 2.1820700000 -0.5394190000 -0.3493360000
C 1.1291100000 -0.9591730000 0.6843200000
C -0.6770520000 0.4011520000 0.2422910000
H 1.6044400000 1.2072100000 -0.0323389000
H 2.1229100000 -1.2310200000 -1.1929500000
H 3.1604600000 -0.7075510000 0.0888482000
H 1.2582300000 -0.3583780000 1.5986700000
H 1.2015300000 -2.0181900000 1.0285300000
H -2.4541600000 1.3454400000 0.0424166000
H -2.6380900000 -0.9935680000 -1.1836400000
N -1.9430200000 0.5045490000 -0.2916750000
O 2.1601900000 0.8310210000 -0.7252150000
O -0.1975000000 -0.8360030000 0.1225710000
O -0.0958614000 1.3807400000 0.6726490000
O -2.6742000000 -0.6496540000 -0.2914380000
