12
0 1
C 0.9368380000 0.5978210000 -0.0117197000
C -1.5009700000 -0.1830130000 -0.0208564000
H 1.1141600000 2.3816000000 0.8280680000
H 1.2162400000 2.3102300000 -0.8055860000
H -1.0686700000 1.7109800000 -0.0969790000
N 0.6951380000 1.9773700000 0.0028975400
N 2.0458300000 -0.0125380000 -0.0005948220
N 1.8038500000 -1.3049000000 0.0182413000
N 0.5359410000 -1.5673800000 -0.0067625100
N -0.0809066000 -0.3300600000 -0.0031852800
O -1.8548900000 1.1158500000 0.0189687000
O -2.2545900000 -1.1444800000 0.0055038100
