15
0 1
H -1.9474700000 -0.3718640000 -0.4114830000
H -3.1408000000 -1.1937900000 0.2667270000
H -0.8552670000 1.4655600000 -0.0379404000
H -2.0986600000 2.2072400000 -0.5105640000
H 1.2682500000 2.0869700000 1.0161700000
H 1.2247800000 0.8362790000 0.1869480000
H 1.5899400000 -0.4721770000 -0.5009110000
H 2.9697200000 -0.1239730000 -1.4557800000
H 1.1939600000 -1.8308100000 0.9732920000
H -0.2757820000 -1.6493200000 0.4318970000
O -2.2071100000 -1.2380800000 -0.0013400200
O -1.6899200000 1.3841700000 -0.5522550000
O 0.7345980000 1.3196200000 0.9141560000
O 2.5358100000 -0.1482290000 -0.6291140000
O 0.6355290000 -1.4367400000 0.2737570000
