20
0 1
C 2.8533300000 -1.4837300000 0.0165250000
C 2.2975500000 1.0256800000 0.0198061000
C 0.1726830000 0.9850930000 -0.0253234000
C -1.2298100000 1.1627800000 -0.0112889000
C -1.4686700000 -1.1625600000 -0.0045509600
C 0.5886780000 -0.3503400000 -0.0306092000
H -3.4109400000 -1.9008500000 0.3561410000
H -2.1560800000 -3.0959100000 -0.3909770000
H -1.2400400000 3.3138100000 -0.2512090000
H -2.7510500000 2.4505700000 0.0904803000
H 3.3259900000 1.3516600000 0.2392560000
H 3.3861400000 -1.6383600000 1.0184100000
H 2.1277100000 -2.3331800000 0.0347530000
H 3.5769900000 -1.6343100000 -0.7808350000
N 1.9560200000 -0.3031910000 -0.1154240000
N 1.2377100000 1.8622100000 0.1212310000
N -1.7806800000 2.3784000000 -0.0820506000
N -2.0520300000 0.0576356000 0.0857592000
N -2.3510600000 -2.1934100000 0.0689438000
N -0.1729940000 -1.4552100000 -0.0932260000
