7
0 1
C 0.7799970000 0.0043690600 -0.0071661000
H 0.1539570000 2.0463300000 0.1552440000
N -0.0781768000 1.0362600000 -0.0007281700
N -1.3606800000 0.6119080000 -0.0227126000
N -1.4208100000 -0.6263650000 -0.0073313300
O 1.9886300000 -0.0604888000 -0.0162708000
O -0.0906702000 -1.0926600000 0.0291655000
