9
0 1
C 1.2103900000 -0.5086920000 0.1615070000
C 0.0926539000 1.5738600000 -0.0108454000
H 2.5880700000 -0.4065110000 -1.1356000000
N 0.9679250000 0.7940150000 -0.3463970000
N -2.0816700000 -0.6211720000 -0.3976800000
N -2.8759200000 -1.3475000000 -0.1371110000
O 2.2923900000 -1.0495800000 -0.4467110000
O -0.6996680000 2.3891800000 0.2122390000
O 0.5974420000 -1.0598400000 1.0344700000
