19
0 1
C -2.7285200000 -0.1607120000 -0.2074870000
C 0.1227200000 1.4832800000 0.4962060000
C 1.9650600000 0.1181440000 0.0940260000
H 3.8789300000 0.9546440000 0.2671820000
H -0.3852700000 2.1957700000 1.1597700000
H -0.2244490000 0.2438870000 -1.0441000000
H 3.2235900000 -1.4288400000 -0.8639480000
H -2.7004500000 -1.9507300000 0.5672780000
H -0.1903030000 -1.2540600000 0.6905960000
H -2.4966500000 1.5741700000 -1.0632500000
N -2.0198200000 -1.2672900000 0.2365760000
N -1.9942100000 1.0313500000 -0.3653810000
N -0.6055770000 1.0184100000 -0.5292080000
N 1.3395100000 1.2197900000 0.7116160000
N 3.2787200000 0.1717890000 0.0726717000
O 1.3541300000 -0.8914660000 -0.4096770000
O -1.0379900000 -1.0880000000 1.1797200000
O -3.9183600000 -0.2248110000 -0.5359810000
O 3.9458000000 -0.8204060000 -0.5958020000
