13
0 1
B 0.7059300000 0.0004300000 0.9379500000
C 1.1913900000 0.7720600000 -0.2857600000
C 1.1908500000 -0.7724400000 -0.2851900000
H 0.2966300000 0.0009100000 2.0461800000
H 2.1523200000 1.2729900000 -0.2611500000
H 0.4763800000 1.2701800000 -0.9296800000
H 2.1514800000 -1.2739300000 -0.2600400000
H 0.4756300000 -1.2706000000 -0.9288500000
C -3.1915615620 0.0000870000 -0.1174216250
H -2.8047015620 0.8909470000 0.3740483750
H -4.2771615620 0.0003970000 -0.0565916250
H -2.8845515620 -0.0003130000 -1.1610016250
H -2.8051815620 -0.8906930000 0.3745883750
