26
0 1
C -1.1002000000 -1.1557000000 1.2437900000
C -1.8715300000 -1.5221500000 0.1834900000
C -0.7389500000 0.1344100000 1.7127200000
H -0.6909000000 -1.9760100000 1.8220000000
C -2.5504700000 -0.7241600000 -0.7750900000
H -1.9872900000 -2.5908400000 0.0444500000
C -1.0661600000 1.3547800000 1.2046300000
H -0.1024700000 0.1147600000 2.5925400000
C -2.5892800000 0.6326800000 -0.8915400000
H -3.1045700000 -1.3036900000 -1.5082800000
H -0.6432300000 2.1898300000 1.7566200000
B -1.9140800000 1.6817200000 -0.0174500000
H -3.1881200000 0.9873700000 -1.7264600000
H -2.0645200000 2.8353400000 -0.3054900000
B 3.0600504170 -0.0291063390 0.5978063150
N 2.6033504170 1.1871636610 0.0173763150
N 2.5407004170 -1.2442463390 0.0643263150
H 3.8454204170 -0.0333363390 1.4993863150
B 1.6486804170 1.2239536610 -1.0424036850
H 2.9504404170 2.0558236610 0.3805963150
B 1.5996204170 -1.2745263390 -1.0083536850
H 2.8563704170 -2.1140663390 0.4525463150
N 1.1836104170 -0.0248363390 -1.5450236850
H 1.2626204170 2.2596336610 -1.4948136850
H 1.1855604170 -2.3093463390 -1.4398036850
H 0.4933804170 -0.0189363390 -2.2736736850
