14
0 1
B 1.3037700000 1.0496900000 0.8759200000
C 1.0569300000 -0.4279100000 1.3382700000
C 2.1387300000 0.9976200000 -0.4568000000
H 0.9794500000 2.0379400000 1.4643900000
H 1.8006800000 -0.6127800000 2.1282700000
H 0.0879800000 -0.6572500000 1.7807400000
C 1.4047100000 -1.2661400000 0.1003000000
C 2.5147100000 -0.4882400000 -0.6158600000
H 1.4680900000 1.3064500000 -1.2677800000
H 2.9868400000 1.6818600000 -0.5052600000
H 0.5253400000 -1.3278100000 -0.5543400000
H 1.6854800000 -2.2947400000 0.3272900000
H 2.6380300000 -0.7969900000 -1.6537700000
H 3.4649100000 -0.6784600000 -0.1103300000
