13
0 1
B 0.7059300000 0.0004300000 0.9379500000
C 1.1913900000 0.7720600000 -0.2857600000
C 1.1908500000 -0.7724400000 -0.2851900000
H 0.2966300000 0.0009100000 2.0461800000
H 2.1523200000 1.2729900000 -0.2611500000
H 0.4763800000 1.2701800000 -0.9296800000
H 2.1514800000 -1.2739300000 -0.2600400000
H 0.4756300000 -1.2706000000 -0.9288500000
C -2.5079283120 0.0000654000 -0.0979883250
H -2.1210683120 0.8909254000 0.3934816750
H -3.5935283120 0.0003754000 -0.0371583250
H -2.2009183120 -0.0003346000 -1.1415683250
H -2.1215483120 -0.8907146000 0.3940216750
