13
0 1
B 1.7792100000 0.0028400000 0.3062400000
H 1.5501900000 0.0021200000 1.4945000000
H 2.2832200000 1.0158200000 -0.1144800000
H 2.2863500000 -1.0083300000 -0.1150900000
S 0.1115230000 0.0002370000 -0.4884635000
C -0.7161570000 -1.3774230000 0.3078365000
H -1.7665770000 -1.3946030000 0.0281365000
H -0.2257470000 -2.2825030000 -0.0404835000
H -0.5960770000 -1.2931530000 1.3857965000
C -0.7208470000 1.3750470000 0.3078865000
H -0.2338870000 2.2818670000 -0.0407435000
H -1.7714070000 1.3883470000 0.0285165000
H -0.6001370000 1.2913970000 1.3858165000
