12
0 1
B 2.0835500000 -0.8336300000 -0.1503000000
B 2.0837000000 0.8335600000 0.1503400000
Cl 1.2113600000 -1.5064900000 -1.5068300000
Cl 3.0054300000 -1.8936300000 0.8852500000
Cl 3.0059500000 1.8933200000 -0.8851300000
Cl 1.2114100000 1.5066800000 1.5066700000
B -1.6636120000 -0.8335661670 0.1503396670
B -1.6636420000 0.8336038330 -0.1503503330
Cl -0.7911620000 -1.5064261670 1.5066996670
Cl -2.5857420000 -1.8935561670 -0.8850003330
Cl -0.7914420000 1.5065238330 -1.5068503330
Cl -2.5855920000 1.8935638330 0.8851796670
