19
0 1
B 2.4752500000 0.1904000000 0.0044600000
O 3.7575900000 0.6672200000 0.0209300000
O 1.4277200000 1.0570300000 0.0179800000
O 2.2690400000 -1.1630500000 -0.0257200000
H 3.7896800000 1.6215700000 0.0416300000
H 0.5727300000 0.6211200000 0.0048200000
H 3.0908400000 -1.6500200000 -0.0322400000
C -2.2372724880 0.7727445240 0.7267893930
C -1.4485424880 -0.1598254760 1.3839893930
C -2.2450224880 0.8216345240 -0.6592206070
H -2.8433824880 1.4645945240 1.2953693930
C -0.6659524880 -1.0438054760 0.6549193930
H -1.4387324880 -0.1946954760 2.4646893930
C -1.4640824880 -0.0620754760 -1.3892306070
H -2.8570924880 1.5516145240 -1.1709006070
C -0.6737824880 -0.9948954760 -0.7328906070
H -0.0354624880 -1.7607754760 1.1614493930
H -1.4664324880 -0.0208954760 -2.4697506070
H -0.0499624880 -1.6746854760 -1.2958506070
