24
0 1
C -1.2888293683 2.7886165566 -0.4457484804
C 1.9091706317 1.8556165566 -2.2557484804
C -0.2178293683 1.9596165566 -1.1317484804
O -0.3228293683 0.7356165566 -1.2067484804
N 0.8391706317 2.6036165566 -1.6067484804
H -1.7928293683 2.1236165566 0.2512515196
H 0.8411706317 3.6166165566 -1.6417484804
H 1.4861706317 1.2426165566 -3.0537484804
H -0.8459193683 3.6248955566 0.1150235196
H -2.0291993683 3.1584415566 -1.1703774804
H 2.6086206317 2.5744585566 -2.7074484804
H 2.4277106317 1.1859495566 -1.5538514804
C -1.1968293683 -2.3333834434 -0.3297484804
C 0.9391706317 -1.0933834434 2.5832515196
C 0.0141706317 -1.9423834434 1.7422515196
O -0.4168293683 -2.9943834434 2.2352515196
N -0.2638293683 -1.5473834434 0.4952515196
H 0.0541706317 -0.6483834434 0.1552515196
H -1.4068293683 -3.3013834434 0.1262515196
H 1.5911706317 -1.8003834434 3.0992515196
H -2.1550493683 -1.8076072434 -0.4537114804
H -0.7943393683 -2.5486691434 -1.3305744804
H 1.5218106317 -0.3683024434 1.9960645196
H 0.3448006317 -0.5806224434 3.3538365196
