24
0 1
C 1.5679159204 2.6200343911 -1.1526806217
C 1.7749159204 -0.8089656089 -2.8306806217
C 1.2609159204 1.1710343911 -1.4916806217
O 0.3719159204 0.5820343911 -0.8756806217
N 1.9609159204 0.5910343911 -2.4646806217
H 1.7089159204 2.6380343911 -0.0716806217
H 2.6469159204 1.1410343911 -2.9646806217
H 1.4019159204 -1.3519656089 -1.9616806217
H 2.4564959204 3.0243483911 -1.6595816217
H 0.7011159204 3.2533243911 -1.3926946217
H 1.0573859204 -0.8961346089 -3.6598709217
H 2.7660159204 -1.2026486089 -3.1003864217
C -2.1820840796 0.9500343911 2.0173193783
C -0.3840840796 -2.1709656089 0.9073193783
C -1.2150840796 -1.2579656089 1.7843193783
O -1.8470840796 -1.6879656089 2.7543193783
N -1.2830840796 0.0030343911 1.3863193783
H -0.7600840796 0.2890343911 0.5643193783
H -1.9400840796 1.0270343911 3.0783193783
H 0.1169159204 -1.5639656089 0.1573193783
H -2.0489410796 1.9319663911 1.5397403783
H -3.2245110796 0.6205443911 1.8957383783
H 0.3606359204 -2.7319616089 1.4909963783
H -1.0420500796 -2.8725056089 0.3735383783
