24
0 1
C 2.1737603795 -0.3109277743 2.7861919947
C 1.8147603795 2.5550722257 0.3171919947
C 1.6777603795 0.5160722257 1.5871919947
O 0.7457603795 0.0940722257 0.8871919947
N 2.3197603795 1.6670722257 1.3561919947
H 2.6987603795 0.3130722257 3.5041919947
H 3.0447603795 1.9910722257 1.9941919947
H 0.8547603795 2.9610722257 0.6371919947
H 1.2784103795 -0.7360877743 3.2632519947
H 2.8216503795 -1.1359077743 2.4550519947
H 2.5159003795 3.3906022257 0.1747719947
H 1.6443203795 2.0215522257 -0.6295380053
C -2.7492396205 0.7060722257 -0.8678080053
C -0.2712396205 -2.1659277743 -1.5108080053
C -1.5632396205 -1.3419277743 -1.5078080053
O -2.5292396205 -1.6289277743 -2.2388080053
N -1.5732396205 -0.2049277743 -0.7848080053
H -0.7752396205 0.0460722257 -0.2078080053
H -3.6452396205 0.1860722257 -0.5208080053
H -0.3192396205 -2.8239277743 -2.3818080053
H -2.5708516205 1.5893822257 -0.2369780053
H -2.9100376205 1.0326922257 -1.9058180053
H 0.6033103795 -1.5045877743 -1.5990880053
H -0.1984596205 -2.7924277743 -0.6095880053
