16
0 1
C -0.7216670000 0.4986960000 -0.0043160000
P 1.0485990000 -0.0127050000 -0.0399560000
O 1.9815870000 1.1025840000 -0.2179260000
C -1.0627230000 1.2365400000 -1.2977290000
H -0.8744830000 0.6153130000 -2.1735480000
H -0.4402620000 2.1316690000 -1.3708770000
C -1.0219810000 1.3240070000 1.2434910000
Cl -1.7444150000 -1.0513700000 0.0640770000
H -0.3930370000 2.2184930000 1.2380510000
H -0.8169810000 0.7571770000 2.1509030000
H -2.0693700000 1.6326220000 1.2451700000
H -2.1138140000 1.5316600000 -1.2926150000
O 1.2136300000 -0.8254860000 1.3378370000
H 2.0686800000 -0.6481820000 1.7491700000
O 1.1593040000 -1.1104360000 -1.1972490000
H 0.5673980000 -1.8636370000 -1.0661930000
