20
0 1
B -2.9924540000 0.0016590000 -0.0042270000
O -3.6316350000 1.2054030000 -0.0844510000
H -4.5889010000 1.1024100000 -0.0631330000
O -3.7719680000 -1.1237160000 0.0763430000
H -3.2755670000 -1.9397400000 0.1739340000
C -1.4237540000 -0.0136830000 -0.0046890000
C -0.6806380000 -1.2013610000 -0.0882830000
H -1.1867530000 -2.1606390000 -0.1709610000
C -0.7093920000 1.1915420000 0.0823060000
H -1.2592190000 2.1234640000 0.1474090000
C 0.7093920000 -1.1915400000 -0.0822870000
C 1.4237540000 0.0136850000 0.0047080000
B 2.9924540000 -0.0016580000 0.0042540000
O 3.6316340000 -1.2054060000 0.0844130000
H 4.5889000000 -1.1024150000 0.0630650000
O 3.7719690000 1.1237140000 -0.0763600000
H 3.2755670000 1.9397370000 -0.1739500000
C 0.6806380000 1.2013630000 0.0883020000
H 1.1867530000 2.1606410000 0.1709810000
H 1.2592190000 -2.1234620000 -0.1473870000
