9
0 2
F -2.4058090000 0.2261020000 -0.0000290000
B -1.2830720000 0.8685000000 -0.0000250000
S 0.3572230000 -0.1638850000 0.0000120000
O 0.4140230000 -0.8742080000 -1.2697150000
C 1.6625950000 1.0639780000 -0.0000580000
O 0.4140390000 -0.8740810000 1.2698100000
H 1.5755430000 1.6701780000 -0.9011120000
H 2.6009150000 0.5067430000 -0.0000340000
H 1.5755530000 1.6702710000 0.9009350000
