10
0 2
C 1.3258180000 -0.1392510000 -0.0237560000
C 0.0032580000 0.5416720000 -0.2133890000
F 1.2032310000 -1.4601180000 -0.2099570000
F 1.8135640000 0.0692840000 1.2160670000
F 2.2317340000 0.3384280000 -0.8928270000
C -1.3337100000 -0.1204430000 -0.0254340000
F 0.0305620000 1.8561450000 -0.0487100000
F -1.4847560000 -1.1446780000 -0.8784030000
F -2.3134070000 0.7653640000 -0.2361190000
F -1.4778390000 -0.6124110000 1.2250020000
