17
0 1
C 1.2600490000 0.8486650000 0.2075620000
O 0.3210140000 -0.1432480000 -0.2954500000
P -1.2313960000 0.0320210000 -0.0469240000
O -1.8383970000 1.3116420000 -0.4223460000
O -1.8235550000 -1.2505150000 -0.7897300000
C 2.6389690000 0.5156040000 -0.3336900000
H 1.2427730000 0.8095660000 1.3011780000
H 0.9279180000 1.8365120000 -0.1201020000
C 3.1727310000 -0.8394930000 0.1363550000
H 3.3140440000 1.3193300000 -0.0177580000
H 2.6004020000 0.5495270000 -1.4272220000
H 3.2602750000 -0.8723640000 1.2267600000
H 4.1617300000 -1.0367480000 -0.2843650000
H 2.5055480000 -1.6470010000 -0.1707090000
O -1.3641260000 -0.3619500000 1.4974060000
H -2.1763630000 -0.0119400000 1.8817180000
H -2.1553640000 -1.0232850000 -1.6660300000
