7
0 1
Si -1.0602440000 0.0000040000 -0.0000050000
C 0.7675310000 -0.0000070000 0.0000150000
C 1.9753540000 -0.0000180000 0.0000160000
H 3.0393950000 0.0001050000 -0.0000850000
H -1.5510520000 -1.2110150000 -0.6913020000
H -1.5510780000 1.2041920000 -0.7031110000
H -1.5511520000 0.0068160000 1.3943810000
