19
0 1
F -1.5914270000 -1.2681320000 -1.3789320000
B -1.2781230000 -0.4729610000 -0.3772830000
F -2.2792440000 0.0024530000 0.3546930000
C 0.2207050000 0.0100500000 -0.0865890000
O 0.5408430000 0.1697340000 1.2796470000
O 0.3500040000 1.2855580000 -0.6924690000
O 1.0810960000 -0.8631460000 -0.7348310000
C 0.3355930000 -0.9937420000 2.0759710000
H 0.7031980000 -0.7545320000 3.0728590000
H 0.8873090000 -1.8506030000 1.6786280000
H -0.7299040000 -1.2472600000 2.1472080000
C -0.1702070000 2.4177030000 0.0143080000
H -0.0061810000 3.2692290000 -0.6452040000
H 0.3548500000 2.5690190000 0.9576810000
H -1.2424290000 2.3164190000 0.2105170000
C 2.4583440000 -0.4594370000 -0.7884520000
H 3.0041030000 -1.3287140000 -1.1521150000
H 2.8250740000 -0.1788460000 0.2017560000
H 2.5884810000 0.3765960000 -1.4769690000
