10
0 1
Si -1.5690670000 -0.1757510000 -0.0053920000
C 0.0400270000 0.8094670000 0.0421790000
H -1.6587900000 -0.9629340000 -1.2569270000
H -2.7236220000 0.7515120000 0.0633250000
H -1.6352670000 -1.1049460000 1.1474030000
P 1.5759910000 -0.2518540000 -0.1176410000
H 1.4829820000 -0.9085920000 1.1374050000
H 2.5247800000 0.6925720000 0.3572230000
H 0.0602780000 1.4180210000 0.9496500000
H 0.0365550000 1.4958950000 -0.8110500000
