13
0 1
B -1.7443490000 -0.6116870000 -0.1294070000
C -0.7831010000 0.5426310000 0.2711270000
C 1.5270630000 -0.5395540000 0.1772370000
C 0.6226260000 0.5791190000 -0.3492300000
H -0.7372410000 0.6689690000 1.3614710000
H 1.0965340000 1.5471450000 -0.1511340000
H 0.5385120000 0.4944620000 -1.4384620000
H 1.1052460000 -1.5255900000 -0.0436820000
H -1.3618460000 1.4303050000 -0.0585470000
H 2.5220650000 -0.4968460000 -0.2739650000
H 1.6509820000 -0.4681730000 1.2627150000
H -2.7466100000 -0.8017160000 0.4927840000
H -1.5454280000 -1.2832910000 -1.0989470000
