19
0 2
O 0.6685350000 -1.2628780000 -0.4399770000
C 2.0468090000 -0.8912020000 -0.4563450000
C 2.2068470000 0.2875010000 0.5034450000
H 2.3367240000 -0.6014430000 -1.4726820000
H 2.6169710000 -1.7676860000 -0.1467630000
S 0.6913280000 1.2819410000 0.2151620000
H 3.0892870000 0.8860240000 0.2794230000
H 2.2363400000 -0.0390170000 1.5439960000
C -0.1342540000 -0.1460890000 -0.5067170000
C -1.5967580000 -0.4181650000 -0.2889980000
C -1.8903150000 -0.9431340000 1.1331040000
C -2.4528000000 0.8094040000 -0.6284000000
H -1.8491890000 -1.2180860000 -0.9967530000
H -2.2457620000 1.6370070000 0.0574570000
H -3.5155860000 0.5693100000 -0.5415330000
H -2.2618720000 1.1567050000 -1.6465000000
H -1.6739360000 -0.1744600000 1.8803580000
H -1.2771670000 -1.8190850000 1.3541420000
H -2.9425170000 -1.2271890000 1.2295490000
