28
0 1
Si -0.6317220000 1.7580380000 -0.4434400000
C 1.2237790000 1.4877490000 -0.6725230000
C 1.7931510000 0.5853040000 0.4115100000
O 1.8308430000 0.9900830000 1.5694770000
N 2.2283690000 -0.6642190000 0.0582050000
C -1.4520760000 0.0199990000 -0.5741310000
H -1.1747000000 2.5137070000 -1.5953570000
H -0.8919340000 2.5336530000 0.7894020000
O -1.0571500000 -0.5885390000 -1.5745970000
N -2.3762680000 -0.5042650000 0.2785250000
C 2.8621550000 -1.4945970000 1.0756210000
H 2.8209340000 -0.9669600000 2.0247640000
H 3.9083090000 -1.6932480000 0.8158150000
H 2.3403920000 -2.4529880000 1.1668410000
C -2.8481600000 0.1598540000 1.4820470000
H -2.3528610000 1.1196130000 1.6067440000
H -2.6354280000 -0.4525740000 2.3649140000
H -3.9301070000 0.3259980000 1.4326290000
C 2.2073500000 -1.2014170000 -1.3006060000
H 1.2848440000 -0.9374510000 -1.8140390000
H 2.2380190000 -2.2905000000 -1.2356640000
H 3.0746910000 -0.8745580000 -1.8880540000
C -2.9334090000 -1.8261820000 0.0136190000
H -2.5120690000 -2.1963360000 -0.9178170000
H -4.0233550000 -1.7676160000 -0.0727640000
H -2.6854530000 -2.5153370000 0.8279970000
H 1.6948870000 2.4651370000 -0.5343560000
H 1.4169400000 1.1597110000 -1.6922620000
