7
0 2
Cl -1.8249370000 0.2136510000 0.0000420000
S 1.2346980000 -0.6630510000 -0.0000340000
B -0.4985690000 -0.9177980000 -0.0000110000
C 1.5061680000 1.1702970000 -0.0000150000
H 2.5852410000 1.3212710000 -0.0000310000
H 1.0696960000 1.6113320000 0.8939080000
H 1.0696660000 1.6113560000 -0.8939100000
