7
0 1
Cl -2.1205630000 -0.8086310000 0.0000270000
Cl -0.3958130000 1.6796350000 -0.0000350000
B -0.5207860000 -0.0611580000 -0.0000380000
C 0.7049300000 -1.0421710000 0.0000120000
Cl 2.3441340000 -0.2859200000 0.0000110000
H 0.6512470000 -1.6938340000 -0.8756630000
H 0.6512210000 -1.6937760000 0.8757300000
