8
0 1
Si 1.3058260000 -0.0000030000 0.3942160000
Si -1.0347300000 -0.0000010000 0.3014290000
F -1.6208870000 -0.0000070000 1.7849920000
Cl -1.7121120000 -1.6799870000 -0.6505680000
F 1.8164760000 -1.2814420000 1.1834250000
Cl 2.1357540000 0.0000090000 -1.4698050000
Cl -1.7121100000 1.6799940000 -0.6505540000
F 1.8164770000 1.2814260000 1.1834420000
