12
0 1
C -0.2256130000 2.0410350000 -0.8497780000
Si -0.0268050000 0.5608490000 0.2037560000
N 1.4802360000 -0.3944070000 -0.2505830000
N -1.3833910000 -0.6734740000 -0.0217950000
O -1.1982230000 -1.8075550000 0.3971060000
O -2.4140610000 -0.2558450000 -0.5436310000
O 1.4276340000 -0.7376370000 -1.4353480000
O 2.3968790000 -0.6102050000 0.5201570000
F 0.0177510000 0.8493120000 1.7603710000
H -0.2595640000 1.7425880000 -1.8989750000
H 0.6105300000 2.7289290000 -0.7002420000
H -1.1575330000 2.5516770000 -0.5976610000
