9
0 2
C -0.0145340000 0.3970180000 0.3449920000
O 1.1907200000 0.1903950000 -0.4204000000
O 2.0029710000 -0.6770330000 0.1542960000
C -0.5536160000 1.7575250000 -0.0195380000
H 0.1811080000 2.5211880000 0.2466550000
H -1.4795380000 1.9480950000 0.5229750000
H -0.7529120000 1.8119930000 -1.0904890000
Cl -1.1957590000 -0.9166530000 -0.0527750000
H 0.2386210000 0.2676630000 1.3941410000
