21
0 1
C -3.2997870000 -1.1106320000 0.0947870000
C -1.9779690000 -1.1031910000 0.5323890000
C -3.8707850000 0.0473700000 -0.4288300000
C -3.1097300000 1.2113980000 -0.5119190000
C -1.7878420000 1.2164240000 -0.0740510000
C -1.2039180000 0.0613520000 0.4590960000
H -1.5414390000 -2.0090640000 0.9406610000
N 2.9074390000 -0.1476350000 0.2444280000
O 3.8580800000 -0.4875540000 -0.7749540000
O 2.9722470000 1.2694020000 0.4119310000
H -3.8845040000 -2.0211520000 0.1650370000
H -3.5459180000 2.1183870000 -0.9156760000
H -4.9005310000 0.0430510000 -0.7677120000
H -1.2017010000 2.1273460000 -0.1399070000
C 0.2352740000 0.0675070000 0.9148260000
H 3.5175150000 1.3741280000 1.2016120000
H 4.5547650000 -0.9362620000 -0.2815640000
P 1.3328580000 -0.6154000000 -0.4368050000
H 0.3676430000 -0.5756170000 1.7889800000
H 0.5688970000 1.0725050000 1.1722940000
H 1.1662550000 0.4749690000 -1.3362610000
