7
0 2
Si -1.6330080000 -0.4538990000 -0.0888310000
C 0.0241150000 0.4983240000 0.0054750000
O 0.0617460000 1.7006700000 0.0178860000
S 1.5907000000 -0.4458470000 0.0017000000
H 1.0376980000 -1.6702410000 0.0378490000
H -2.7182780000 0.3687590000 0.4882210000
H -1.5471550000 -1.8056840000 0.5144250000
