11
0 1
Cl 1.2539860000 1.7161470000 -0.0002440000
B 0.6663420000 0.0586310000 0.0008720000
Cl 1.8748800000 -1.2341020000 -0.0004120000
C -0.8489630000 -0.2946140000 0.0004530000
N -1.6207230000 0.7419950000 0.0003520000
O -2.9602520000 0.3985800000 0.0000150000
H -3.4021520000 1.2553800000 -0.0000010000
C -1.3920560000 -1.7006150000 0.0001890000
H -0.5936530000 -2.4391370000 0.0003240000
H -2.0265040000 -1.8576190000 -0.8767110000
H -2.0269420000 -1.8577760000 0.8767440000
