20
0 1
P -1.6404910000 -0.6520520000 -0.0000000000
C 0.1622370000 -0.2202420000 -0.0000000000
C 1.0836370000 -1.2740490000 -0.0000020000
C 0.6535680000 1.0927010000 0.0000010000
C 2.0224870000 1.3429710000 0.0000010000
C 2.9280660000 0.2817820000 -0.0000000000
C 2.4564560000 -1.0274910000 -0.0000020000
H 3.9946280000 0.4773640000 0.0000000000
H 3.1542680000 -1.8576060000 -0.0000030000
H 0.7187760000 -2.2958010000 -0.0000030000
H -0.0338160000 1.9320960000 0.0000030000
H 2.3848170000 2.3653360000 0.0000030000
C -2.2566080000 0.3791570000 1.4184850000
H -3.3462190000 0.2989700000 1.4615480000
H -1.8529660000 -0.0168190000 2.3527720000
H -1.9861720000 1.4355780000 1.3369840000
C -2.2566080000 0.3791590000 -1.4184840000
H -1.8529660000 -0.0168140000 -2.3527720000
H -1.9861720000 1.4355800000 -1.3369810000
H -3.3462190000 0.2989730000 -1.4615470000
