16
0 1
F -0.4318740000 -2.3542050000 -0.0000040000
F -0.3786140000 2.3828590000 0.0000080000
F 3.6214100000 -0.0208810000 -0.0000120000
O -2.7936620000 1.1993660000 0.0000100000
O -2.8655010000 -1.1328570000 0.0000030000
C -0.5437190000 0.0191340000 0.0000030000
C 0.2178420000 -1.1538940000 -0.0000030000
C 2.2780060000 -0.0084980000 -0.0000070000
C 0.2306230000 1.1898080000 0.0000030000
C 1.5996310000 -1.2174070000 -0.0000080000
H 2.1211420000 -2.1639490000 -0.0000120000
C 1.6186800000 1.2087890000 -0.0000020000
H 2.1602950000 2.1443260000 -0.0000010000
B -2.1258520000 0.0148880000 0.0000090000
H -2.3375470000 -1.9362420000 -0.0000020000
H -3.7460120000 1.0518050000 0.0000100000
