17
0 1
Cl -1.7014580000 1.4464840000 -1.1649290000
Cl -1.7014580000 -1.4464840000 -1.1649290000
S -0.6180440000 0.0000000000 1.1673580000
O -0.8540760000 -1.2637820000 1.8056750000
O -0.8540760000 1.2637820000 1.8056750000
N -1.8449450000 0.0000000000 -0.1592730000
C 1.6103580000 -1.2201050000 0.1444580000
C 2.8782660000 -1.2106130000 -0.4275470000
C 3.5072960000 -0.0000000000 -0.7155320000
C 2.8782660000 1.2106130000 -0.4275470000
C 1.6103590000 1.2201050000 0.1444580000
C 0.9891070000 0.0000000000 0.4164470000
H 1.1132220000 -2.1475090000 0.3939100000
H 3.3766980000 -2.1483520000 -0.6416740000
H 4.4963650000 -0.0000000000 -1.1589220000
H 3.3766990000 2.1483520000 -0.6416740000
H 1.1132230000 2.1475090000 0.3939100000
