14
0 2
C -0.7531210000 1.8132690000 0.0000820000
B -0.0051030000 0.4677840000 0.0000160000
O 1.3625410000 0.5061160000 0.0000210000
O -0.6049860000 -0.7674490000 -0.0000200000
C 2.1279060000 -0.6952630000 -0.0000220000
H 3.1805100000 -0.4102540000 -0.0000110000
H 1.9146220000 -1.2997460000 -0.8864370000
H 1.9146220000 -1.2998110000 0.8863490000
C -2.0151040000 -0.9363200000 -0.0000140000
H -2.2182940000 -2.0080360000 -0.0000480000
H -2.4721300000 -0.4929370000 -0.8907430000
H -2.4721180000 -0.4929960000 0.8907510000
H -1.8335390000 1.9147950000 -0.0001050000
H -0.2066790000 2.7506170000 -0.0001220000
