24
0 1
Si -0.4416840000 -1.0972020000 1.1523130000
Si 0.4416840000 1.0972020000 1.1523130000
N 0.2422440000 1.8964550000 -0.3739260000
H 1.9003530000 1.0929880000 1.4347180000
H -0.1902650000 1.7908460000 2.3200910000
N -0.2422440000 -1.8964550000 -0.3739260000
H -1.9003530000 -1.0929880000 1.4347180000
H 0.1902650000 -1.7908460000 2.3200910000
C -0.9806570000 1.7717200000 -1.1577600000
H -1.7280960000 2.5424390000 -0.9110610000
H -1.4347210000 0.7905600000 -1.0052550000
H -0.7517570000 1.8646570000 -2.2269090000
C 0.9806570000 -1.7717200000 -1.1577600000
H 1.7280960000 -2.5424390000 -0.9110610000
H 1.4347210000 -0.7905600000 -1.0052550000
H 0.7517570000 -1.8646570000 -2.2269090000
C 0.9806570000 3.1214370000 -0.6587870000
H 1.9238650000 3.1346480000 -0.1079000000
H 0.4182420000 4.0299350000 -0.3905710000
H 1.2173970000 3.1817830000 -1.7287300000
C -0.9806570000 -3.1214370000 -0.6587870000
H -1.9238650000 -3.1346480000 -0.1079000000
H -0.4182420000 -4.0299350000 -0.3905710000
H -1.2173970000 -3.1817830000 -1.7287300000
