8
0 1
Si 1.8780920000 0.0001110000 0.0001550000
C -0.0417840000 0.0000190000 0.0000210000
Cl -0.6466660000 -0.3417610000 -1.6627700000
Cl -0.6470060000 1.6108090000 0.5353700000
Cl -0.6468670000 -1.2691680000 1.1272330000
H 2.3155470000 1.0534190000 -0.9349280000
H 2.3156030000 -1.3363440000 -0.4444480000
H 2.3154400000 0.2832930000 1.3799110000
