9
0 1
C 0.0000020000 0.5554660000 0.0000010000
N -1.2383410000 -0.3661250000 -0.1727390000
N 1.2383410000 -0.3661290000 0.1727390000
O -1.1339310000 -1.1593850000 -1.0834700000
O -2.1605310000 -0.1816480000 0.5821600000
O 2.1605320000 -0.1816500000 -0.5821570000
O 1.1339220000 -1.1593960000 1.0834620000
F 0.1301310000 1.2916460000 -1.0790700000
F -0.1301250000 1.2916440000 1.0790730000
