12
0 2
B 0.5520360000 1.7301460000 -0.0000170000
B 0.4724210000 0.1195910000 -0.0001180000
O -0.6469780000 -0.6688790000 -0.0001350000
C 1.8744180000 -0.6335600000 -0.0002770000
H 2.7541430000 0.0163600000 -0.0007280000
H 1.9398400000 -1.2819400000 -0.8819660000
H 1.9403570000 -1.2813680000 0.8817960000
C -1.9485810000 -0.0951320000 0.0004090000
H -2.6752680000 -0.9084410000 -0.0032910000
H -2.1068250000 0.5230310000 -0.8905720000
H -2.1087440000 0.5166330000 0.8954220000
H 0.7550160000 2.8902270000 0.0003050000
