8
0 1
S 0.7556280000 -0.0586940000 0.1026870000
F -2.0652380000 0.7628280000 0.0275000000
O 0.8814730000 1.0125810000 -1.1216850000
O 1.4829620000 -1.2320940000 -0.2969320000
O 1.0358490000 0.6572670000 1.3218650000
P -1.3543860000 -0.6964170000 0.0639630000
H 0.8707630000 1.9019430000 -0.7359680000
H -1.2601450000 -0.8840680000 -1.3399580000
