20
0 1
B -2.6366590000 0.0001980000 1.3095560000
C 0.0598160000 -0.0001040000 -0.6200010000
C 0.7498980000 -1.2033020000 0.0606350000
C 0.7498770000 1.2033320000 0.0602430000
C 2.2321210000 0.7783810000 0.2025180000
H 0.3152400000 1.3678380000 1.0535660000
H 0.6308450000 2.1340630000 -0.5000410000
C 2.2321470000 -0.7783130000 0.2025710000
H 2.6844060000 1.1913670000 1.1072570000
H 2.8139670000 1.1574630000 -0.6418290000
H 2.8137880000 -1.1574190000 -0.6419100000
H 2.6846720000 -1.1912410000 1.1072170000
H 0.6307890000 -2.1342520000 -0.4992710000
H 0.3153640000 -1.3674020000 1.0540730000
Si -1.8317540000 -0.0001000000 -0.5399310000
H 0.3412890000 -0.0002830000 -1.6825910000
H -2.3617470000 -1.1932760000 -1.2617450000
H -2.3617550000 1.1928580000 -1.2621010000
H -1.9979760000 0.0005030000 2.3170820000
H -3.8241940000 0.0002320000 1.4257500000
