8
0 1
Si 0.7727460000 -1.3294210000 0.0000000000
Si 0.0000000000 0.8979130000 0.0000000000
F -1.6198830000 0.9097750000 0.0000000000
H 0.4515840000 1.6295780000 1.2058190000
H 0.4515840000 1.6295780000 -1.2058190000
H 0.3003560000 -2.0470220000 1.2074490000
H 2.2566110000 -1.3119820000 0.0000000000
H 0.3003560000 -2.0470220000 -1.2074490000
