14
0 1
Si 1.0937410000 -1.2945990000 0.6526770000
Si -0.8564510000 -1.1488310000 -0.6760870000
C -1.8444460000 0.3902280000 -0.0333640000
H -1.7143400000 -2.3516370000 -0.5703040000
H -0.5501640000 -0.8776710000 -2.0984590000
O -1.2885130000 1.4277470000 0.2447840000
S -3.6330300000 0.1828950000 0.1216220000
H -3.8600340000 1.4411160000 0.5473340000
C 2.5026750000 -0.1201740000 0.0235230000
H 1.6427230000 -2.6662430000 0.6279760000
H 0.7308500000 -0.9082840000 2.0360270000
O 3.5893560000 -0.5706720000 -0.2346560000
S 2.2067630000 1.6577160000 -0.1466120000
H 0.8930620000 1.6440470000 0.1630250000
