24
0 1
B -0.7115530000 -1.1542000000 -0.4060630000
B 0.7115980000 -1.1542370000 0.4059430000
C 2.0130070000 -0.3488230000 0.0086770000
N 2.3441740000 0.8196550000 0.3911470000
C -2.0129760000 -0.3488610000 -0.0086890000
N -2.3442160000 0.8196190000 -0.3910920000
C 2.9564990000 -1.1004420000 -0.9131550000
H 2.4746160000 -1.3349000000 -1.8684700000
H 3.2709610000 -2.0505410000 -0.4675440000
H 3.8358870000 -0.4810810000 -1.0961700000
C -2.9563850000 -1.1005620000 0.9131610000
H -2.4744410000 -1.3350390000 1.8684400000
H -3.2708280000 -2.0506550000 0.4675260000
H -3.8357910000 -0.4812490000 1.0962490000
C 1.4545100000 1.5400830000 1.2903660000
H 1.9597830000 1.6895200000 2.2499060000
H 0.4864390000 1.0485970000 1.4830620000
H 1.2541780000 2.5336260000 0.8791970000
C -1.4546360000 1.5401250000 -1.2903310000
H -1.9599710000 1.6895800000 -2.2498350000
H -0.4865530000 1.0486910000 -1.4831040000
H -1.2543250000 2.5336600000 -0.8791310000
H 0.8229690000 -1.9160340000 1.3285110000
H -0.8229720000 -1.9160290000 -1.3285980000
