17
0 1
C 0.3219830000 -0.5049540000 0.9912160000
C 1.3086930000 0.2640430000 0.1461000000
O 1.4062990000 1.4635390000 0.0836740000
O 2.0959440000 -0.5645370000 -0.5877770000
H 2.6757740000 0.0053170000 -1.1148480000
C -0.7729310000 -1.1952740000 0.1488330000
H -0.1117510000 0.1993590000 1.7010450000
H 0.8692810000 -1.2661070000 1.5542790000
C -1.6098270000 -0.2525900000 -0.7296430000
H -1.4344940000 -1.7297950000 0.8396350000
H -0.3006870000 -1.9532460000 -0.4826870000
C -2.3688190000 0.8316410000 0.0425270000
H -2.3228270000 -0.8639630000 -1.2933790000
H -0.9640280000 0.2213780000 -1.4779480000
H -2.9996770000 0.3944690000 0.8236030000
H -3.0183910000 1.4021430000 -0.6263720000
H -1.6857350000 1.5412390000 0.5152910000
