15
0 2
Si 1.8039590000 -0.6683070000 -0.1507520000
C 0.0238760000 -0.2188060000 0.4535090000
O -0.8744680000 -0.7718410000 -0.4802410000
O -0.1978820000 1.1531330000 0.7012440000
C -2.2118450000 -0.8902030000 0.0043300000
H -2.2562410000 -1.5740870000 0.8618190000
H -2.8072500000 -1.2984530000 -0.8118590000
H -2.6140460000 0.0827470000 0.3020930000
C -0.0674320000 1.9976490000 -0.4371470000
H -0.2385820000 3.0157000000 -0.0888990000
H -0.7950840000 1.7441630000 -1.2133600000
H 0.9410590000 1.9294020000 -0.8695740000
H -0.1240180000 -0.6830220000 1.4411200000
H 1.9453880000 -2.1464560000 -0.1923140000
H 2.8045530000 -0.0958670000 0.7893290000
