28
0 1
C 2.8996230000 -1.7622190000 -0.4682110000
C 1.9383940000 -0.8111480000 -0.7990090000
C 3.7837260000 -1.5282520000 0.5825540000
C 3.7098000000 -0.3367760000 1.3064290000
C 2.7565600000 0.6158730000 0.9761320000
C 1.8604350000 0.3892150000 -0.0791400000
H 1.2409160000 -1.0113030000 -1.6010440000
H 2.9554310000 -2.6883020000 -1.0287190000
H 4.5288780000 -2.2730420000 0.8392610000
H 4.3969850000 -0.1547390000 2.1247860000
H 2.6849800000 1.5508880000 1.5177850000
C 0.8840060000 1.4705870000 -0.4039850000
O 0.9156840000 2.5492890000 0.1567880000
C -0.1550610000 1.2650840000 -1.5227760000
O -0.8754630000 0.0406890000 -1.4827110000
H 0.3700300000 1.2557060000 -2.4821300000
H -0.8244900000 2.1286300000 -1.5048980000
C -1.8791260000 -0.1090800000 -0.5555450000
C -2.1903790000 0.8256280000 0.4338260000
C -2.6118010000 -1.2962960000 -0.6551790000
C -3.6509870000 -1.5451260000 0.2304560000
C -3.9739760000 -0.6170450000 1.2224980000
C -3.2408320000 0.5600100000 1.3151750000
H -1.6286530000 1.7440100000 0.5377310000
H -3.4770740000 1.2886920000 2.0825020000
H -2.3515760000 -2.0020120000 -1.4347560000
H -4.2136750000 -2.4680300000 0.1448000000
H -4.7858050000 -0.8130410000 1.9127210000
