14
0 2
Cl 3.1958350000 0.2528950000 -0.0000480000
B 1.6715450000 -0.6316720000 -0.0000320000
O 0.5064600000 0.0422040000 0.0000270000
C -0.7427060000 -0.6105260000 0.0000540000
O -0.8406400000 -1.8092630000 0.0000170000
N -1.7499670000 0.2932480000 0.0000230000
C -1.5857270000 1.7426930000 0.0000240000
H -2.0615080000 2.1721990000 0.8878090000
H -2.0614950000 2.1721990000 -0.8877670000
H -0.5333280000 2.0036860000 0.0000320000
C -3.1213230000 -0.2027400000 -0.0000060000
H -3.6515990000 0.1536480000 -0.8889010000
H -3.6516320000 0.1536380000 0.8888740000
H -3.1056090000 -1.2890440000 -0.0000110000
