7
0 1
F 1.0837070000 1.0477230000 -0.0000010000
S 0.7689540000 -0.5842710000 0.0000000000
C -0.9748220000 -0.5635490000 0.0000000000
C -1.7725170000 0.5006810000 -0.0000000000
H -1.3490960000 -1.5859100000 0.0000010000
H -1.3759550000 1.5069470000 -0.0000010000
H -2.8475440000 0.3749950000 -0.0000000000
