17
0 1
N 2.2529150000 -0.0553080000 0.5660630000
Si 0.8560380000 -0.0076990000 -0.4489560000
C -0.4109200000 1.3981570000 -0.2443640000
C -0.3591630000 -1.3919790000 -0.0076930000
H 2.1662290000 -0.1435780000 1.5683940000
H 3.0815500000 0.4662650000 0.3198820000
C -1.7489950000 -0.7112150000 -0.0163040000
H -0.1220750000 -1.7607500000 0.9982790000
H -0.3079200000 -2.2558720000 -0.6744690000
C -1.5934680000 0.7342930000 0.5030960000
H -2.4836240000 -1.2682720000 0.5736560000
H -2.1324810000 -0.6781290000 -1.0433380000
H -2.5247610000 1.2985200000 0.3906870000
H -1.3763390000 0.7034860000 1.5785170000
H -0.7379290000 1.7316460000 -1.2369840000
H -0.0275200000 2.2803320000 0.2751120000
H 1.3852100000 -0.0542420000 -1.8352020000
