18
0 1
Si 0.6042100000 1.5745660000 0.0451900000
C -1.0479630000 1.1653430000 -0.7846050000
S -2.0632170000 0.0125850000 0.2299490000
O -1.2763780000 -0.2000310000 1.5033310000
C -1.8415850000 -1.4830880000 -0.7886020000
S 1.9928910000 -0.1851830000 -0.2560960000
H 0.5354290000 2.0393380000 1.4422780000
H 1.2257190000 2.6263230000 -0.7942580000
O 1.3035010000 -0.9983090000 -1.3498470000
C 1.7763890000 -1.0550590000 1.3399880000
H -2.4134530000 -1.3552400000 -1.7107140000
H -2.2563500000 -2.3062480000 -0.2060580000
H -0.7783960000 -1.6268720000 -0.9959520000
H 2.2933240000 -0.4700720000 2.1050110000
H 2.2676190000 -2.0216840000 1.2183270000
H 0.7192680000 -1.1630280000 1.5805530000
H -0.8461410000 0.7299030000 -1.7653600000
H -1.6187770000 2.0887620000 -0.9166970000
