10
0 1
F 1.7908020000 0.0000390000 -1.3047850000
C 1.7058160000 -0.0001120000 1.0768310000
C 2.5636380000 -0.0000660000 -0.1627780000
H 3.2035150000 -0.8905310000 -0.1635200000
H 3.2035820000 0.8903500000 -0.1634070000
N 0.4562480000 -0.0000800000 1.0757560000
B -0.6892820000 -0.0000200000 0.2985480000
Cl -1.4749390000 1.5329990000 -0.1311060000
Cl -1.4751440000 -1.5328950000 -0.1311930000
H 2.2630580000 -0.0002070000 2.0217320000
