13
0 1
Si -1.9120150000 -0.0667950000 -0.2884730000
C -0.5252930000 -0.4753010000 0.9514490000
H -2.2895410000 1.3557850000 -0.2318470000
H -3.0750410000 -0.8880980000 0.1315810000
H -1.5374190000 -0.4687630000 -1.6600770000
S 1.0754220000 0.2735720000 0.4447500000
O 0.7149410000 1.4314760000 -0.4408770000
C 1.6329180000 -1.0797780000 -0.6535650000
H 1.8434750000 -1.9683390000 -0.0549160000
H 2.5485560000 -0.7250410000 -1.1270410000
H 0.8760420000 -1.2801770000 -1.4125470000
H -0.3997590000 -1.5516540000 1.0941770000
H -0.7701370000 -0.0370770000 1.9230020000
