18
0 1
C -1.2335570000 0.3952270000 -0.0000260000
O -1.7245740000 1.4999610000 -0.0000030000
O -1.9700130000 -0.7374070000 -0.0000060000
C 0.2318060000 0.1208410000 -0.0000110000
C -3.3949760000 -0.5503340000 0.0000140000
H -3.8203540000 -1.5515280000 0.0000270000
H -3.7085970000 0.0008630000 -0.8879470000
H -3.7085710000 0.0008750000 0.8879760000
C 0.7511130000 -1.1782640000 -0.0000100000
C 1.1004680000 1.2170900000 0.0000010000
C 2.4758040000 1.0167190000 0.0000130000
C 2.9913160000 -0.2792210000 0.0000140000
C 2.1285210000 -1.3743440000 0.0000020000
H 2.5296760000 -2.3813890000 0.0000030000
H 0.0741240000 -2.0220390000 -0.0000190000
H 3.1463310000 1.8683990000 0.0000220000
H 4.0643280000 -0.4354980000 0.0000240000
H 0.6767870000 2.2136140000 -0.0000000000
