18
0 2
S 2.4553270000 -0.0000010000 -0.0524460000
C 0.6727860000 -0.0000060000 0.3173000000
C -0.0385560000 -1.2750230000 -0.1703360000
C -1.5289170000 -1.2663240000 0.2082310000
H 0.4612710000 -2.1549520000 0.2415640000
H 0.0611560000 -1.3373980000 -1.2605970000
C -2.2364690000 0.0000050000 -0.2918710000
H -1.6238070000 -1.3265000000 1.3002390000
H -2.0147170000 -2.1605040000 -0.1947860000
C -1.5289080000 1.2663290000 0.2082300000
H -3.2830170000 0.0000090000 0.0285520000
H -2.2456240000 0.0000040000 -1.3893920000
C -0.0385470000 1.2750190000 -0.1703340000
H -1.6237980000 1.3265070000 1.3002380000
H -2.0147020000 2.1605120000 -0.1947890000
H 0.0611650000 1.3373960000 -1.2605960000
H 0.4612860000 2.1549440000 0.2415690000
H 0.6672220000 -0.0000010000 1.4198160000
