13
0 1
Si 2.1536690000 -0.0336570000 0.0000180000
C 0.3170800000 -0.4633340000 -0.0000540000
C -2.0928690000 0.3977710000 -0.0001270000
O -2.5343810000 -0.7220380000 0.0001350000
H 2.4986730000 0.7663200000 -1.2013410000
H 2.4986000000 0.7662380000 1.2014520000
H 2.9704680000 -1.2700800000 -0.0000000000
C -0.6196890000 0.7480420000 -0.0000550000
H -0.4493680000 1.3980440000 0.8699610000
H -0.4493130000 1.3980850000 -0.8700290000
H -2.7759770000 1.2770060000 0.0001930000
H 0.1017060000 -1.0915140000 0.8704970000
H 0.1017620000 -1.0914710000 -0.8706480000
