8
0 1
C 0.2378350000 0.7428650000 0.0000000000
C -0.2378350000 -0.7428650000 0.0000000000
Cl 2.0174500000 0.8331950000 0.0000000000
F -0.2378350000 1.3607820000 1.0886190000
F -0.2378350000 1.3607820000 -1.0886190000
Cl -2.0174500000 -0.8331950000 0.0000000000
F 0.2378350000 -1.3607820000 1.0886190000
F 0.2378350000 -1.3607820000 -1.0886190000
