11
0 1
C 0.0852870000 -0.7958740000 0.4478780000
N 1.3444960000 -0.0887830000 0.0316860000
B -1.2563930000 -0.0382560000 0.0116810000
H 0.1284340000 -0.8278660000 1.5413810000
H 0.1544500000 -1.8121850000 0.0685880000
O 2.2383980000 -0.7441370000 -0.4627010000
O 1.3981890000 1.1273600000 0.2329160000
O -2.3573510000 -0.8255120000 -0.1038080000
O -1.3193310000 1.2961170000 -0.1929400000
H -0.4559270000 1.7143680000 -0.0466940000
H -3.1474300000 -0.3169370000 -0.3184850000
