21
0 1
C 2.4374170000 0.8646300000 -0.1950370000
C 1.4031180000 0.0883610000 0.6372700000
C 1.7717790000 -1.3747560000 0.3781160000
N 2.8309770000 -1.3794740000 -0.5208230000
N 3.3528680000 -0.0662420000 -0.6762190000
H 3.7306950000 0.1304820000 -1.5962130000
H 3.5277150000 -2.1029970000 -0.3873930000
C -0.0444670000 0.4964730000 0.3883300000
O 1.2982440000 -2.3692480000 0.8715720000
O 2.4919710000 2.0464040000 -0.4262160000
H 1.6376790000 0.2674660000 1.6951280000
C -1.0274870000 -0.4576100000 0.1160610000
C -2.3398450000 -0.0431030000 -0.0889300000
C -2.7034690000 1.2957180000 -0.0235610000
C -1.7172480000 2.2377830000 0.2578810000
C -0.3982090000 1.8482730000 0.4658560000
H 0.3626540000 2.5909790000 0.6633750000
H -1.9825590000 3.2871060000 0.3148350000
H -0.7875290000 -1.5108850000 0.0866220000
Cl -3.5679280000 -1.2520230000 -0.4347340000
H -3.7320470000 1.5903830000 -0.1853460000
