7
0 1
Si 1.3334880000 0.0169710000 0.0000200000
C -0.5811450000 0.1535790000 0.0000930000
O -1.2732870000 1.1108700000 -0.0000250000
F -1.1477360000 -1.1079240000 -0.0000720000
H 1.8833970000 1.3836930000 -0.0000220000
H 1.7252410000 -0.7292220000 -1.2118420000
H 1.7253260000 -0.7291830000 1.2118780000
