20
0 1
C 0.3135860000 -0.2809790000 0.5625410000
P -2.5065960000 -0.4037470000 -0.1247460000
C -2.2134040000 1.2722200000 -0.8732180000
H -1.1795810000 1.4349770000 -1.1812740000
H -2.4974920000 2.0416390000 -0.1510010000
H -2.8666040000 1.3786100000 -1.7425810000
C 1.0277040000 -1.2684200000 -0.1290110000
C 2.3014060000 -1.0150840000 -0.6282110000
C 2.8900930000 0.2360430000 -0.4482400000
C 2.1938120000 1.2267710000 0.2387370000
C 0.9189120000 0.9687580000 0.7395460000
H 0.3901250000 1.7449860000 1.2835540000
H 0.5806510000 -2.2471710000 -0.2727180000
H 2.8379590000 -1.7967550000 -1.1547840000
H 3.8831630000 0.4336440000 -0.8354220000
H 2.6438940000 2.2016910000 0.3908370000
C -1.0703600000 -0.5565520000 1.0878750000
H -1.3069130000 0.1103510000 1.9222840000
H -1.1381290000 -1.5758570000 1.4797790000
H -1.9186260000 -1.1664600000 -1.1675950000
