7
0 1
O -0.5840390000 -0.6053880000 0.3518550000
F -1.4685990000 0.5173480000 -0.1135670000
O 0.5365460000 -0.5579870000 -0.4029380000
C 1.4368180000 0.4408960000 0.1240540000
H 2.3310920000 0.3497490000 -0.4910680000
H 1.6579990000 0.2289270000 1.1706750000
H 0.9873290000 1.4268200000 0.0068400000
