22
0 1
C 2.7158730000 -1.3027120000 0.4889380000
C 1.4195550000 -1.4912450000 0.0153340000
C 3.2358080000 -0.0148740000 0.5621260000
C 2.4577880000 1.0688080000 0.1616520000
C 1.1550480000 0.8938850000 -0.3146520000
C 0.6163520000 -0.4132880000 -0.3918900000
H 3.3135830000 -2.1545730000 0.7935820000
H 1.0245010000 -2.5004130000 -0.0451890000
B -2.4732070000 -0.0626450000 0.4225400000
O -2.0637830000 0.4838070000 1.6108360000
O -3.8084150000 -0.1356330000 0.1742780000
H 2.8703820000 2.0713530000 0.2157420000
H 4.2440690000 0.1489580000 0.9264030000
C 0.3532340000 2.1007290000 -0.7491940000
H 0.9229570000 3.0219070000 -0.6148810000
H -0.5731270000 2.2001470000 -0.1740630000
H 0.0698810000 2.0332060000 -1.8039260000
H -4.3355320000 0.2118010000 0.9059080000
H -1.1078790000 0.4725320000 1.7228990000
Si -1.1520390000 -0.7605100000 -0.9669090000
H -1.4048610000 -0.1451340000 -2.2952630000
H -1.2737370000 -2.2326150000 -1.1219790000
