18
0 1
C 1.5562950000 0.1190490000 0.3281560000
C 1.9423890000 1.3912140000 -0.4255460000
H 2.1869820000 1.1640510000 -1.4663360000
H 2.8211140000 1.8506280000 0.0406870000
S 0.0562970000 -0.7065000000 -0.4252450000
Si -1.5660620000 0.4862450000 0.3476320000
C -3.1687710000 -0.3424680000 -0.1597810000
H -3.2490180000 -0.4077000000 -1.2476740000
H -4.0213150000 0.2355030000 0.2086860000
H -3.2365000000 -1.3524090000 0.2511440000
C 2.6895790000 -0.9083020000 0.3445530000
H 1.2872780000 0.3651620000 1.3583980000
H 2.9442370000 -1.2261430000 -0.6706150000
H 2.4167520000 -1.7944370000 0.9203880000
H 3.5850860000 -0.4669280000 0.7934030000
H 1.1360620000 2.1268630000 -0.4224870000
H -1.5167310000 1.8735830000 -0.1779940000
H -1.4467720000 0.5714250000 1.8251810000
