20
0 1
C -0.0033420000 0.3078080000 -0.3607490000
N -2.4077640000 -0.3169730000 -0.3429680000
C -2.7321390000 -0.2616940000 1.0795770000
H -3.0798680000 0.7295990000 1.4189930000
H -1.8486530000 -0.5219690000 1.6674140000
H -3.5086970000 -0.9960720000 1.3051740000
C 0.4300880000 -1.0204770000 -0.4187030000
C 1.7431870000 -1.3515760000 -0.0961570000
C 2.6449250000 -0.3594270000 0.2875290000
C 2.2211340000 0.9654890000 0.3521080000
C 0.9042480000 1.2933580000 0.0334430000
H 0.5774400000 2.3271430000 0.0945720000
H -0.2816710000 -1.7856450000 -0.7057800000
H 2.0646920000 -2.3864730000 -0.1441620000
H 3.6673810000 -0.6183190000 0.5393100000
H 2.9123220000 1.7435810000 0.6573330000
C -1.4218550000 0.6764510000 -0.7619570000
H -1.4690050000 0.7428510000 -1.8552350000
H -1.6452540000 1.6872260000 -0.3758750000
H -3.2518120000 -0.2026980000 -0.8915200000
