16
0 1
C -2.2363710000 0.9688810000 0.0000010000
C -2.0451830000 -0.4061180000 0.0000000000
C -0.7894000000 -0.9871930000 -0.0000010000
C -1.1071390000 1.7818290000 -0.0000000000
C 0.1746910000 1.2351730000 -0.0000020000
C 0.3312250000 -0.1537330000 -0.0000020000
H -3.2393940000 1.3745970000 0.0000020000
F -3.1272870000 -1.2152270000 0.0000010000
H -0.6730570000 -2.0624950000 -0.0000020000
H -1.2249480000 2.8590470000 0.0000000000
H 1.0413190000 1.8858130000 -0.0000020000
O 1.5524550000 -0.7631560000 -0.0000040000
Si 3.0892240000 -0.1258200000 0.0000030000
H 3.9818200000 -1.2968740000 0.0000030000
H 3.3120610000 0.7053240000 1.2045270000
H 3.3120700000 0.7053290000 -1.2045170000
