18
0 1
C -1.1310010000 0.0097210000 0.0000050000
C -0.5718480000 1.2887310000 0.0000020000
C 0.8029130000 1.4222800000 0.0000000000
C -0.3331930000 -1.1268410000 0.0000060000
C 1.0504870000 -0.9943190000 0.0000040000
C 1.6260970000 0.2836290000 0.0000010000
H -0.8018190000 -2.1010380000 0.0000080000
H 1.6651880000 -1.8833750000 0.0000050000
O 2.9568750000 0.5254350000 -0.0000010000
C 3.8598830000 -0.5774420000 0.0000000000
H 4.8563030000 -0.1405250000 -0.0000020000
H 3.7334800000 -1.1947630000 -0.8951260000
H 3.7334820000 -1.1947590000 0.8951280000
N -2.5928280000 -0.1375760000 0.0000070000
O -3.2678470000 0.8853680000 -0.0000130000
O -3.0523890000 -1.2740200000 -0.0000090000
H -1.2232160000 2.1513530000 0.0000010000
H 1.2732410000 2.3973180000 -0.0000020000
