7
0 2
Si -0.6270830000 -1.8077820000 0.0000000000
C -0.0181430000 0.0148230000 -0.0000000000
Cl -0.6270830000 0.8570700000 1.4708900000
Cl -0.6270830000 0.8570700000 -1.4708900000
Cl 1.7904260000 0.0575280000 -0.0000000000
H -0.1141940000 -2.4491730000 1.2329090000
H -0.1141940000 -2.4491730000 -1.2329090000
