9
0 1
P -0.3422130000 -1.2748620000 -0.1116710000
C 0.9574920000 0.0916270000 -0.0077900000
O 0.3222770000 1.3346990000 -0.0119310000
C -1.0481180000 1.2262710000 0.0104670000
C -1.6091140000 0.0163190000 0.0514760000
O 2.1428490000 0.0039100000 0.0212960000
H -2.6774630000 -0.1400260000 0.0389320000
H -1.5384970000 2.1897770000 -0.0136580000
H -0.1734130000 -1.6409950000 1.2499450000
