8
0 1
Si 1.0972220000 0.5985470000 -0.0000010000
C -0.7153590000 -0.0335900000 -0.0000010000
F -1.5657840000 1.0274520000 -0.0000050000
F 2.0623940000 -0.6807390000 0.0000040000
F -1.0090040000 -0.7803160000 1.0894860000
H 1.3117970000 1.3736060000 1.2312750000
F -1.0090010000 -0.7803220000 -1.0894830000
H 1.3118000000 1.3735980000 -1.2312800000
