24
0 1
C 0.8636560000 -0.1055160000 -1.1047100000
Si -0.7049040000 0.9629400000 -1.0582870000
P -2.5206770000 0.1984720000 0.0827710000
H -1.1498930000 1.1381830000 -2.4651810000
H -0.3936840000 2.3097330000 -0.5142520000
P 1.7943050000 -0.3285020000 0.4946240000
C -2.4585080000 -1.6244010000 -0.3256290000
H -1.5110370000 -2.0984420000 -0.0581940000
H -2.6418110000 -1.7665190000 -1.3933800000
H -3.2628220000 -2.1286550000 0.2162130000
C -1.9056040000 0.1772380000 1.8459870000
H -1.7478220000 1.2048570000 2.1815740000
H -0.9811140000 -0.3867370000 1.9834010000
H -2.6870450000 -0.2583320000 2.4746830000
C 2.6063700000 1.3333760000 0.6474500000
H 1.8622290000 2.0921780000 0.8970240000
H 3.1213050000 1.6320630000 -0.2713100000
H 3.3330030000 1.2992320000 1.4630360000
C 3.2459050000 -1.3117530000 -0.1196070000
H 2.9150820000 -2.3157470000 -0.3961940000
H 3.9801190000 -1.4130410000 0.6839670000
H 3.7288510000 -0.8467250000 -0.9848900000
H 1.5258170000 0.2984800000 -1.8825640000
H 0.5621380000 -1.1049130000 -1.4397850000
