14
0 1
C 0.2146700000 1.5560590000 -0.1975460000
Cl 2.0291810000 1.6245830000 -0.3885540000
H -0.1063220000 2.5914730000 -0.1033850000
H -0.1656310000 1.1548020000 -1.1354160000
C -0.2146700000 0.7363380000 1.0095260000
C 0.2146700000 -0.7363380000 1.0095260000
H -1.3081480000 0.7966340000 1.0542320000
H 0.1650460000 1.2117330000 1.9181110000
C -0.2146700000 -1.5560590000 -0.1975460000
H -0.1650460000 -1.2117330000 1.9181110000
H 1.3081480000 -0.7966340000 1.0542320000
Cl -2.0291810000 -1.6245830000 -0.3885540000
H 0.1063220000 -2.5914730000 -0.1033850000
H 0.1656310000 -1.1548020000 -1.1354160000
