16
0 1
C 1.9950580000 -1.2048060000 -0.1570330000
C 0.6633020000 -1.2036300000 0.2487650000
C -0.0165090000 0.0000010000 0.4604290000
C 0.6633030000 1.2036310000 0.2487640000
C 1.9950590000 1.2048050000 -0.1570350000
C 2.6647490000 -0.0000010000 -0.3602490000
H 2.5100510000 -2.1460770000 -0.3128850000
H 0.1443660000 -2.1439620000 0.4030700000
H 0.1443690000 2.1439630000 0.4030680000
H 2.5100530000 2.1460750000 -0.3128880000
H 3.7023170000 -0.0000020000 -0.6744310000
C -1.4584520000 0.0000020000 0.8949570000
S -2.5598240000 -0.0000010000 -0.6009410000
H -1.6822240000 0.8882550000 1.4856940000
H -1.6822240000 -0.8882500000 1.4856970000
H -3.7285790000 0.0000000000 0.0661350000
