19
0 1
C -2.1578760000 0.0002860000 0.0705440000
N -3.2794640000 -0.0001570000 -0.1983250000
C -0.7296220000 0.0001210000 0.3903460000
C 2.1504630000 -0.0001370000 -0.3366800000
C 1.4599560000 -1.2681230000 0.1843570000
C -0.0386990000 -1.2771880000 -0.1445630000
H 1.5920680000 -1.3331570000 1.2719180000
H 1.9315270000 -2.1600110000 -0.2387810000
H -0.1823370000 -1.3243220000 -1.2297300000
H -0.5223990000 -2.1616980000 0.2780260000
C -0.0384760000 1.2772960000 -0.1446020000
H -0.6501280000 0.0001290000 1.4852900000
C 1.4601750000 1.2679810000 0.1843290000
H 2.1259790000 -0.0001460000 -1.4336920000
H 3.2059560000 -0.0002250000 -0.0483740000
H -0.5220360000 2.1619020000 0.2779470000
H -0.1820980000 1.3244140000 -1.2297710000
H 1.9318990000 2.1597780000 -0.2388290000
H 1.5922940000 1.3330180000 1.2718880000
