15
0 1
S 0.0016600000 1.4026810000 -0.1096400000
P -1.3956190000 -0.1911140000 0.0358570000
O -2.7695360000 0.2996500000 -0.0460920000
O -0.9968280000 -1.2850710000 -1.0774090000
O 1.3547130000 0.5303040000 0.4626590000
C 2.2314260000 -0.0054850000 -0.5664060000
C 3.3857960000 -0.6820610000 0.1453950000
H 2.5779960000 0.8193880000 -1.1956520000
H 1.6681300000 -0.7088770000 -1.1856040000
H 3.9196290000 0.0280490000 0.7799690000
H 4.0868290000 -1.0837730000 -0.5911540000
H 3.0339020000 -1.5091420000 0.7661770000
O -0.9188540000 -0.9380420000 1.3522600000
H 0.0111770000 -0.7362280000 1.5509500000
H -1.4492290000 -1.1150630000 -1.9135660000
