22
0 1
Si -0.5969200000 -1.6015070000 -0.1290070000
C 0.9414420000 -1.1412550000 0.9089410000
C 1.6731900000 0.0747210000 0.3918600000
O 1.1615090000 1.1940080000 0.4191060000
N 2.9091590000 -0.1428510000 -0.1285990000
C -1.9919380000 -0.2866710000 -0.1983260000
H -1.1806990000 -2.8183520000 0.4723920000
H -0.1677450000 -1.8947940000 -1.5163950000
O -3.0748040000 -0.6996310000 -0.6081580000
N -1.7475050000 0.9883800000 0.1889780000
C 3.7226450000 0.9154300000 -0.7070610000
H 3.2804560000 -1.0784050000 -0.1042500000
H 3.9763720000 0.6880230000 -1.7458730000
H 4.6454750000 1.0590980000 -0.1379700000
H 3.1388460000 1.8331110000 -0.6732980000
C -2.7586760000 2.0327530000 0.1094380000
H -0.7863520000 1.2401370000 0.4124590000
H -3.7038610000 1.5666910000 -0.1640810000
H -2.4969640000 2.7780100000 -0.6481290000
H -2.8686680000 2.5368390000 1.0733370000
H 1.5872410000 -2.0221980000 0.9803800000
H 0.5875900000 -0.9106550000 1.9181760000
