16
0 1
C -1.8037560000 1.2930050000 -0.0930730000
C -0.4309270000 1.1344880000 -0.2553200000
C 0.1541230000 -0.1340990000 -0.1495220000
C -2.6148970000 0.1872770000 0.1567350000
C -2.0422660000 -1.0791800000 0.2467350000
C -0.6670800000 -1.2411300000 0.0961190000
H -2.2412120000 2.2821300000 -0.1698940000
H 0.1872180000 2.0012520000 -0.4629330000
H -0.2336950000 -2.2317980000 0.1787140000
H -3.6849170000 0.3118130000 0.2765820000
H -2.6649400000 -1.9455270000 0.4403190000
B 2.9840700000 0.6465040000 0.7702480000
P 1.9506090000 -0.3267580000 -0.4055400000
H 2.6206970000 1.7175020000 1.1357380000
H 4.0894590000 0.2634450000 0.9845470000
H 2.1767340000 -1.6921270000 -0.1612600000
