19
0 1
O 0.2307670000 0.7079110000 -0.0000270000
B 1.4591480000 0.1184370000 -0.0000080000
O 2.5756170000 0.9199030000 -0.0000380000
C -1.0604310000 0.0413060000 -0.0000010000
C -2.0789700000 1.1834410000 -0.0000340000
H -1.9452930000 1.8095160000 -0.8853870000
H -1.9452860000 1.8095730000 0.8852780000
C -1.2029030000 -0.8089580000 1.2677920000
H -2.2004880000 -1.2542580000 1.3155200000
H -1.0636410000 -0.1865860000 2.1557600000
H -0.4633150000 -1.6100270000 1.2822760000
C -1.2029130000 -0.8090410000 -1.2677370000
H -1.0636580000 -0.1867260000 -2.1557460000
H -2.2004990000 -1.2543440000 -1.3154270000
H -0.4633250000 -1.6101100000 -1.2821750000
H -3.0995020000 0.7920740000 -0.0000170000
H 2.3366650000 1.8512340000 -0.0000720000
O 1.6331800000 -1.2430200000 0.0000460000
H 2.5674000000 -1.4713680000 0.0000540000
