15
0 1
B -1.6451340000 -0.0499590000 -0.0373920000
O -0.5756480000 -0.6390470000 0.5144660000
F -1.7821130000 1.2754800000 -0.1201150000
F -2.6288750000 -0.8015620000 -0.5156800000
C 0.5437990000 0.1319860000 1.0094610000
C 1.6810900000 0.1158380000 0.0199610000
C 2.1578430000 1.2577980000 -0.4744710000
C 2.2264690000 -1.2393630000 -0.3421410000
H 2.9911480000 1.2721460000 -1.1686870000
H 1.7328390000 2.2173980000 -0.2004450000
H 3.0264630000 -1.1642980000 -1.0800740000
H 2.6206470000 -1.7497360000 0.5442450000
H 1.4358160000 -1.8772800000 -0.7468800000
H 0.8385850000 -0.3530370000 1.9441540000
H 0.2290390000 1.1541600000 1.2242130000
