21
0 1
C -2.6503050000 0.2143260000 -0.0000000000
C -1.7791640000 1.3027280000 0.0000420000
C -0.4022340000 1.0989660000 0.0000370000
C 0.1367200000 -0.1940910000 -0.0000090000
C -0.7502920000 -1.2745910000 -0.0000500000
C -2.1303290000 -1.0767070000 -0.0000460000
H -0.3544410000 -2.2855240000 -0.0000870000
H -2.1736420000 2.3130950000 0.0000780000
H 0.2591680000 1.9590220000 0.0000700000
H -2.7972390000 -1.9320270000 -0.0000790000
H -3.7228760000 0.3726980000 0.0000030000
C 1.6412380000 -0.4268050000 -0.0000120000
C 2.3092460000 0.1313750000 -1.2694970000
H 1.8590010000 -0.2915910000 -2.1709930000
H 3.3776380000 -0.1044800000 -1.2787110000
H 2.2087180000 1.2193190000 -1.3254950000
C 2.3092340000 0.1312680000 1.2695260000
H 1.7936830000 -1.5121710000 -0.0000570000
H 3.3776260000 -0.1045870000 1.2787310000
H 1.8589800000 -0.2917750000 2.1709820000
H 2.2087030000 1.2192070000 1.3256150000
