22
0 2
C 0.2328700000 -1.3451400000 0.1623780000
C 1.6856760000 -1.1080370000 -0.2742330000
C 2.2141770000 0.2411990000 0.2324150000
C 1.2952190000 1.3952360000 -0.1921310000
C -0.1558490000 1.1501230000 0.2440010000
C -2.1493140000 -0.4258230000 0.2033140000
C -0.6989620000 -0.1970210000 -0.2638120000
B -3.2693000000 0.4926900000 -0.3211160000
H -4.4135420000 0.5284020000 0.0132500000
H 0.1941460000 -1.4454420000 1.2561140000
H -0.1342480000 -2.2931210000 -0.2475900000
H 1.7401120000 -1.1274240000 -1.3704850000
H 2.3233720000 -1.9237840000 0.0818380000
H 3.2317870000 0.4117090000 -0.1338010000
H 2.2774090000 0.2150320000 1.3282020000
H 1.3299640000 1.5014870000 -1.2840640000
H 1.6573930000 2.3415110000 0.2228550000
H -0.8019740000 1.9613940000 -0.1104230000
H -0.2109940000 1.1625270000 1.3419340000
H -2.1938740000 -0.4671490000 1.3054180000
H -2.4911190000 -1.4334280000 -0.1073070000
H -0.7048380000 -0.1583820000 -1.3619550000
