8
0 2
Si 0.8888360000 -0.0000000000 -0.1285660000
C -0.7959440000 -0.7796790000 0.0362920000
C -0.7959440000 0.7796790000 0.0362920000
H -1.2650290000 1.2430940000 -0.8263860000
H -1.0596740000 1.2750800000 0.9666660000
H -1.0596760000 -1.2750800000 0.9666660000
H -1.2650280000 -1.2430940000 -0.8263860000
H 1.7570240000 0.0000010000 1.0838670000
