12
0 2
F 2.0708490000 -0.2190160000 0.0652850000
B 0.8908520000 -0.8105290000 0.0593160000
C -0.4337900000 -0.0601810000 -0.3305590000
C -1.7144140000 -0.7743120000 0.1313450000
H -1.7294700000 -1.8175730000 -0.1925580000
H -2.6051170000 -0.2801540000 -0.2683430000
H -1.7941650000 -0.7676930000 1.2225320000
C -0.4082930000 1.4297610000 0.0739120000
H -0.4021710000 -0.1089400000 -1.4346270000
H -0.4367860000 1.5410120000 1.1620650000
H -1.2774600000 1.9555520000 -0.3326230000
H 0.4922430000 1.9299780000 -0.2887870000
