13
0 2
C 0.6616960000 -0.6082600000 -0.2498120000
O 0.8844580000 -1.7098320000 0.1765190000
Si -1.1283180000 0.0701540000 -0.6011900000
O 1.5777410000 0.2925480000 -0.6312410000
Cl -2.4645950000 -1.2145510000 0.3192580000
Cl -1.3148900000 1.9664940000 0.2281070000
C 2.9863180000 -0.0789970000 -0.4912180000
C 3.4972770000 0.2321520000 0.9037890000
H 3.4881880000 0.5190190000 -1.2507080000
H 3.0858460000 -1.1381040000 -0.7305220000
H 3.3387770000 1.2841810000 1.1496040000
H 4.5698850000 0.0249580000 0.9545670000
H 2.9956690000 -0.3863400000 1.6497360000
