13
0 1
H 2.8624130000 0.0003520000 1.0430220000
H 2.8623200000 -0.0003970000 -1.0431610000
N 0.9210630000 0.0000210000 0.0000190000
C -1.1278460000 -1.2871680000 -0.0000490000
C -0.3309150000 0.0000010000 0.0000610000
C -1.1278880000 1.2871440000 0.0000420000
B 2.2783420000 0.0000250000 -0.0000440000
H -0.4660430000 -2.1519030000 -0.0001130000
H -1.7779360000 -1.3308890000 -0.8801310000
H -1.7779370000 -1.3310200000 0.8800250000
H -0.4661140000 2.1519020000 0.0000560000
H -1.7780000000 1.3309100000 0.8801060000
H -1.7779630000 1.3309100000 -0.8800490000
