16
0 1
C -0.2377630000 -1.2005700000 -0.0014760000
C 1.1522800000 -1.2038570000 -0.0046580000
C 1.8670870000 0.0021650000 -0.0058260000
C -0.9688510000 -0.0066700000 0.0000230000
C -0.2462520000 1.1957880000 -0.0019450000
C 1.1398700000 1.2059180000 -0.0054230000
H -0.7649520000 -2.1488620000 0.0013280000
H 1.6908460000 -2.1462860000 -0.0098530000
N 3.2555000000 0.0123460000 -0.0663280000
H 3.7169160000 -0.8263220000 0.2520770000
H 3.7054890000 0.8529430000 0.2630870000
P -2.8075220000 -0.1145580000 0.0059140000
H 1.6735240000 2.1513990000 -0.0120300000
H -0.7755000000 2.1424910000 0.0000690000
H -3.0831530000 0.8157860000 -1.0318890000
H -3.0770580000 0.8341540000 1.0286250000
