8
0 1
Si 1.1715480000 -0.0647450000 -0.0000000000
B -0.7633720000 0.5547550000 0.0000040000
O -1.7465360000 -0.3748010000 -0.0000010000
H -1.0500260000 1.7214770000 -0.0000000000
H -2.6350260000 -0.0011250000 -0.0000030000
H 1.3221170000 -1.5407750000 -0.0000040000
H 1.8752040000 0.4757390000 1.1937730000
H 1.8752010000 0.4757450000 -1.1937720000
