16
0 1
P -1.9601930000 0.2145070000 0.6253290000
Si -0.3910110000 -0.4695140000 -0.8941970000
C 1.3716480000 -0.1234720000 -0.2778170000
C 1.6496380000 1.3819700000 -0.1129080000
H 1.0402940000 1.8159410000 0.6866520000
H 1.4424630000 1.9413400000 -1.0297350000
C 1.7138070000 -0.9048340000 1.0034670000
H 2.6984640000 1.5560040000 0.1505120000
H 2.0174330000 -0.4976930000 -1.0847800000
H 2.7578980000 -0.7388880000 1.2903820000
H 1.0901960000 -0.5872410000 1.8448940000
H 1.5731910000 -1.9816950000 0.8756200000
H -3.0493960000 -0.0979210000 -0.2302740000
H -1.9262220000 1.5785980000 0.2324420000
H -0.5894160000 0.1776420000 -2.2162720000
H -0.5884060000 -1.9324720000 -1.0570750000
