12
0 1
C 1.8860250000 -0.8545410000 0.1809380000
C 2.2693720000 0.4400470000 0.1254530000
P 0.2101320000 -1.3459550000 -0.2383130000
C -0.7527240000 0.1860670000 -0.0302130000
C -0.0161280000 1.4239630000 -0.1205710000
C 1.3412670000 1.5310920000 -0.0542660000
S -2.4018830000 0.1256290000 0.1094250000
H 2.6186040000 -1.6408480000 0.3345760000
H 3.3171730000 0.6954860000 0.2480130000
H -0.6165790000 2.3265710000 -0.1707070000
H 1.7657110000 2.5294650000 -0.0903650000
H -0.1736370000 -2.0911820000 0.8943440000
