8
0 1
C 1.1463950000 -0.6190500000 -0.3813810000
Si -0.4710850000 0.0170640000 0.3207750000
F -1.6302890000 -0.9905920000 -0.1242290000
F 2.1777260000 0.1625810000 0.1725510000
F -0.8050810000 1.4417440000 -0.3148750000
H -0.4759750000 0.1477800000 1.7813210000
H 1.1888880000 -0.5301750000 -1.4713250000
H 1.3227060000 -1.6657860000 -0.1135830000
