8
0 1
S -1.0624780000 -0.0376060000 0.1061840000
Cl 2.2196760000 -0.4504980000 0.0095640000
O -0.9647990000 -1.0942900000 -1.1281430000
O -2.0512460000 0.9318900000 -0.2769020000
O -1.1395230000 -0.7991860000 1.3255670000
P 0.8290080000 1.1087590000 0.0595490000
H -0.6384510000 -1.9362990000 -0.7749070000
H 0.7130310000 1.2577600000 -1.3440400000
