15
0 1
Si -0.4156500000 -0.0862310000 0.6686890000
C 0.7171750000 1.3854060000 0.3460870000
C 0.7439070000 -1.4099020000 -0.0126120000
C 1.7929330000 0.8033170000 -0.6059520000
H 1.1743780000 1.6895710000 1.2953470000
H 0.2118370000 2.2613110000 -0.0641970000
C 2.0875250000 -0.6532650000 -0.1875510000
H 2.7049590000 1.4072070000 -0.6038670000
H 1.4107790000 0.8113560000 -1.6331280000
H 0.3666970000 -1.7526680000 -0.9813270000
H 0.8365940000 -2.2908650000 0.6262820000
H 2.7364000000 -1.1506410000 -0.9141540000
H 2.6300930000 -0.6471900000 0.7652210000
Cl -2.2042950000 0.0226570000 -0.4216950000
H -0.8288530000 -0.2593670000 2.0771660000
