9
0 1
S 1.2175750000 -0.8673780000 0.0346790000
P -0.7368230000 -0.0465960000 -0.0641390000
O -1.7411370000 -1.0789530000 -0.3046810000
O -0.5809210000 1.1187690000 -1.1286460000
O 2.0447150000 0.6370940000 -0.0213460000
H 2.1634250000 0.9252220000 0.8935820000
O -0.9245890000 0.8099000000 1.2859080000
H -1.2947120000 0.2716120000 1.9972440000
H 0.3178860000 1.4856700000 -1.1334900000
