20
0 1
C -2.8446260000 -1.1664800000 0.1769450000
C -1.5480100000 -1.2318840000 -0.3280940000
C -3.4462100000 0.0698770000 0.3997090000
C -2.7424410000 1.2391900000 0.1173450000
C -1.4469210000 1.1729480000 -0.3875970000
C -0.8378950000 -0.0642590000 -0.6226620000
H -1.0833150000 -2.1972260000 -0.4987460000
P 1.8122420000 0.1173300000 0.1338890000
O 1.8063240000 1.4090080000 0.8353220000
O 3.1475650000 -0.2461700000 -0.6802300000
H -3.3846680000 -2.0815490000 0.3931930000
H -3.2020200000 2.2056440000 0.2912510000
H -4.4562680000 0.1223070000 0.7900040000
H -0.8980900000 2.0854110000 -0.5918360000
C 0.5728360000 -0.1378460000 -1.1616890000
H 0.7532040000 0.6305950000 -1.9179760000
H 0.7756000000 -1.1085100000 -1.6199080000
H 3.9457700000 0.0487770000 -0.2245850000
O 1.6513470000 -1.1477890000 1.1240770000
H 1.2838610000 -0.8750690000 1.9731870000
