8
0 2
C -1.2988190000 -0.0564580000 0.1784310000
O -0.1851490000 -0.3511890000 -0.5655240000
F -2.2292040000 -0.9693790000 -0.0260510000
F -1.7741320000 1.1629600000 -0.0523600000
C 1.0353930000 -0.0374900000 -0.0145250000
F 1.1333270000 1.2651510000 0.2702370000
F 1.9560190000 -0.3603210000 -0.9099180000
F 1.2541830000 -0.7236100000 1.1115090000
