13
0 1
B 0.8068260000 1.3347500000 0.1010110000
C -0.0040310000 0.0975420000 -0.3978020000
C 0.8180450000 -1.1148110000 0.1386210000
H 0.8619250000 -1.1196780000 1.2325330000
H 0.0241430000 0.0313070000 -1.4926020000
C -1.4619010000 0.0184350000 0.0790130000
H -1.5200380000 0.0546120000 1.1715490000
H -1.9412890000 -0.9096960000 -0.2512520000
H -2.0560390000 0.8513380000 -0.3082370000
H 1.8429200000 -1.1224450000 -0.2423100000
H 0.3399170000 -2.0489010000 -0.1729210000
H 1.7562990000 1.7294010000 -0.5076310000
H 0.5453580000 1.8533210000 1.1468250000
