14
0 1
P -0.6188240000 -0.0209150000 -0.5836650000
N 0.8854700000 -0.0265420000 0.4194710000
O 1.6444670000 -1.1657120000 0.0422500000
O 1.6109990000 1.1302500000 -0.0249530000
C -1.4201790000 1.4388660000 0.2128250000
H -0.9360750000 2.3515910000 -0.1349170000
H -1.3564020000 1.3830150000 1.3023460000
C -1.4548830000 -1.3892680000 0.3303250000
H -2.4903630000 -1.4580050000 -0.0136650000
H -1.4344460000 -1.2225090000 1.4096160000
H -0.9531550000 -2.3306770000 0.1037930000
H -2.4707790000 1.4664600000 -0.0883940000
H 1.8084100000 -1.0766620000 -0.9136290000
H 2.1235250000 1.3723980000 0.7562480000
