20
0 1
C -1.3642420000 0.4036630000 0.3907430000
C -0.0199730000 0.7920230000 -0.2172770000
C 1.1807750000 -0.0249040000 0.2683620000
H 0.1410740000 1.8498050000 0.0314590000
H -0.0977660000 0.7382230000 -1.3088970000
C -2.4990650000 1.3410660000 0.0081360000
H -2.2766900000 2.3495980000 0.3718490000
H -3.4438800000 1.0178800000 0.4470710000
H -2.6191380000 1.3847230000 -1.0767590000
Cl -1.8206370000 -1.3090350000 -0.1244120000
H -1.2814080000 0.3263740000 1.4760240000
C 2.5075660000 0.4421360000 -0.3416990000
H 1.0220060000 -1.0811440000 0.0297610000
H 1.2431110000 0.0389210000 1.3625310000
C 3.7106100000 -0.3713020000 0.1436650000
H 2.6644250000 1.5019540000 -0.1060690000
H 2.4423940000 0.3799110000 -1.4345890000
H 3.8234570000 -0.3011690000 1.2300270000
H 4.6402480000 -0.0174950000 -0.3100440000
H 3.5989680000 -1.4300830000 -0.1089270000
