9
0 1
S 1.6593530000 0.1460830000 0.0000000000
N -0.0000000000 0.4828570000 0.0000000000
C -0.8896960000 -0.4243120000 0.0000000000
C -2.3474060000 -0.0776370000 0.0000000000
H -0.6332130000 -1.4932660000 0.0000000000
H -2.4784770000 1.0042810000 0.0000000000
H -2.8428510000 -0.5011280000 0.8806890000
H -2.8428510000 -0.5011280000 -0.8806890000
H 1.6703510000 -1.2143950000 0.0000000000
