20
0 1
C -1.1693660000 -0.0000000000 0.3843090000
C -0.3191060000 -1.2695420000 0.6007940000
C 0.9034070000 -1.2713720000 -0.3301160000
C 1.7475850000 0.0000000000 -0.1572000000
C 0.9034070000 1.2713720000 -0.3301160000
C -0.3191070000 1.2695420000 0.6007940000
B -2.1154470000 -0.0000000000 -0.8500190000
H -0.9240340000 -2.1653490000 0.4313050000
H 0.0280760000 -1.3120710000 1.6416250000
H 0.5603240000 -1.3399730000 -1.3716600000
H 1.5170720000 -2.1594370000 -0.1472380000
H 2.5823310000 0.0000000000 -0.8657230000
H 2.1919130000 0.0000000000 0.8468110000
H 0.5603240000 1.3399730000 -1.3716600000
H 1.5170720000 2.1594370000 -0.1472380000
H 0.0280760000 1.3120710000 1.6416250000
H -0.9240340000 2.1653490000 0.4313050000
H -1.9804510000 -0.0000000000 1.1516040000
H -2.5301770000 -1.0269300000 -1.3007280000
H -2.5301770000 1.0269300000 -1.3007280000
