16
0 1
Si -1.0785000000 -1.1506550000 -0.3899540000
Si 1.0906180000 -1.1280190000 0.5484390000
C 1.9786310000 0.4892380000 -0.0315330000
H 1.9120730000 -2.3109610000 0.1738830000
H 1.0479810000 -1.0445270000 2.0275120000
O 1.3779380000 1.5611940000 0.0420300000
N 3.2477680000 0.4180460000 -0.5039650000
H 3.7465920000 -0.4540110000 -0.5595530000
H 3.7098390000 1.2684190000 -0.7985070000
C -2.1594500000 0.4100300000 -0.0113430000
H -1.8102640000 -2.3244640000 0.1314660000
H -0.9468600000 -1.2750640000 -1.8619970000
O -3.3710000000 0.2640550000 -0.0890570000
N -1.5511560000 1.5773220000 0.3027060000
H -2.1366480000 2.3914160000 0.4354940000
H -0.5392390000 1.6854440000 0.2752010000
