15
0 2
Si -1.8105950000 -0.5578530000 -0.0261510000
C -0.0490970000 0.2312620000 0.0648390000
O 0.8140410000 -0.8896970000 -0.0848310000
O 0.1561890000 0.8743450000 1.3213590000
C 2.2183050000 -0.6214980000 -0.1153290000
H 2.5282700000 -0.1903950000 -1.0733150000
H 2.7121060000 -1.5843300000 0.0134800000
H 2.5103460000 0.0483460000 0.6980330000
C 0.1669990000 1.3152220000 -0.9891930000
H 0.1275580000 0.8873820000 -1.9928520000
H 1.1372600000 1.7992030000 -0.8431010000
H -0.6014660000 2.0848450000 -0.9008790000
H 0.0088090000 0.2169010000 2.0117380000
H -2.0004870000 -1.3786540000 -1.2489890000
H -2.8531430000 0.4995420000 0.0478720000
