9
0 2
S -0.3397740000 -0.2123240000 0.0000000000
O -0.3215990000 -0.9132920000 1.2582580000
N 1.0023900000 0.9510390000 -0.0000010000
C -1.6445970000 1.0052690000 -0.0000000000
H -2.5750950000 0.4368760000 0.0000010000
H -1.5615490000 1.6088440000 0.9021480000
F 2.1256690000 0.1851580000 -0.0000010000
O -0.3215990000 -0.9132950000 -1.2582560000
H -1.5615500000 1.6088420000 -0.9021510000
