18
0 1
C 1.9614720000 -1.4304280000 0.0508190000
C 3.2535640000 -0.9272870000 0.1636920000
C 3.4710880000 0.4517340000 0.1466990000
C 2.3929380000 1.3153640000 0.0302490000
C 1.0765580000 0.8263890000 -0.0617070000
C 0.8639570000 -0.5711050000 -0.0491100000
P -0.8066360000 -1.2595450000 -0.3366360000
C -1.9131610000 0.1572200000 -0.0133460000
H 4.4776930000 0.8458800000 0.2217770000
H 4.0910260000 -1.6093820000 0.2555210000
H 2.5558950000 2.3879010000 0.0161030000
S -3.5251080000 -0.1142520000 0.2341550000
C -0.0253080000 1.7686330000 -0.1325550000
C -1.3525510000 1.4836160000 -0.1077700000
H 0.2576280000 2.8169970000 -0.1665000000
H -2.0677760000 2.2997530000 -0.1014520000
H 1.8066760000 -2.5047300000 0.0418410000
H -0.9912180000 -1.9600280000 0.8739410000
