19
0 2
Si -2.0036990000 -0.5179920000 0.2414280000
C -0.2514440000 -0.8874590000 -0.3815790000
C 0.8466770000 0.0399180000 0.1809190000
H -0.2557670000 -0.8359610000 -1.4773510000
H -0.0176120000 -1.9290550000 -0.1307260000
C -2.6068930000 1.2027260000 -0.2551270000
H -1.9653230000 1.9824860000 0.1709960000
H -3.6245060000 1.3753580000 0.1042690000
H -2.6084390000 1.3226160000 -1.3418400000
C 2.2540310000 -0.3083180000 -0.3252670000
H 0.8397410000 -0.0050140000 1.2767640000
H 0.6232030000 1.0811040000 -0.0814880000
C 3.3411980000 0.6140900000 0.2337230000
H 2.2616000000 -0.2642030000 -1.4209390000
H 2.4817710000 -1.3477880000 -0.0607640000
H 3.1575650000 1.6566810000 -0.0443110000
H 4.3299750000 0.3397130000 -0.1440060000
H 3.3781610000 0.5654170000 1.3264790000
H -2.0499970000 -0.6552020000 1.7269100000
