15
0 1
C -0.8394250000 0.0000080000 -1.0872630000
C -2.2064820000 0.0000100000 -1.3312660000
C -3.1107200000 0.0000020000 -0.2675250000
C -2.6410940000 -0.0000080000 1.0418140000
C -1.2693970000 -0.0000090000 1.2893220000
C -0.3637370000 -0.0000010000 0.2275400000
H -0.1370460000 0.0000150000 -1.9123110000
H -2.5701930000 0.0000170000 -2.3522430000
C 1.1036770000 -0.0000030000 0.5341270000
H -0.9050150000 -0.0000160000 2.3111230000
Cl 1.9352800000 1.4801660000 -0.1029000000
Cl 1.9352790000 -1.4801660000 -0.1029160000
H 1.2906970000 -0.0000090000 1.6020390000
H -3.3378320000 -0.0000140000 1.8719790000
H -4.1770500000 0.0000030000 -0.4622140000
