18
0 1
Si 0.6514740000 0.0000000000 0.4832970000
C -0.3021380000 -1.4929430000 -0.1251470000
C -1.8163290000 -1.2948550000 0.1366660000
H 0.0572990000 -2.4137370000 0.3437560000
H -0.1239550000 -1.6003760000 -1.2018120000
C -2.3890570000 0.0000000000 -0.4676190000
H -2.0068190000 -1.2962400000 1.2175540000
H -2.3662940000 -2.1524560000 -0.2651980000
C -1.8163290000 1.2948550000 0.1366660000
H -3.4755860000 0.0000000000 -0.3319580000
H -2.2160240000 0.0000000000 -1.5517670000
C -0.3021380000 1.4929430000 -0.1251470000
H -2.0068190000 1.2962400000 1.2175540000
H -2.3662940000 2.1524560000 -0.2651980000
H -0.1239550000 1.6003760000 -1.2018120000
H 0.0572990000 2.4137370000 0.3437560000
Cl 2.6136460000 0.0000000000 -0.2565920000
H 0.7744870000 0.0000000000 1.9585040000
