17
0 1
C -0.6669710000 -0.3861780000 0.2027790000
B 2.4818460000 0.2247240000 -0.1446430000
F 2.3942430000 1.5361530000 0.0677340000
F 3.5505410000 -0.1810220000 -0.8169740000
C -0.9704710000 0.9774120000 0.3512490000
C -1.6948020000 -1.2525240000 -0.2015820000
C -2.2567990000 1.4546800000 0.1131040000
C -3.2652240000 0.5780310000 -0.2829550000
C -2.9821590000 -0.7765520000 -0.4416370000
H -3.7622010000 -1.4622850000 -0.7535640000
H -1.4900120000 -2.3101520000 -0.3333800000
H -2.4709420000 2.5109430000 0.2329470000
H -4.2663430000 0.9500240000 -0.4704270000
H -0.1959330000 1.6768700000 0.6479620000
Si 1.0572330000 -1.0482050000 0.5532830000
H 1.2071090000 -2.3863150000 -0.0648830000
H 1.2833240000 -1.1932300000 2.0160150000
