10
0 2
C 0.2168050000 -0.0562890000 0.5480080000
C 1.3476820000 0.7495950000 -0.0699610000
C 1.3354500000 -0.7326220000 -0.2540420000
H 1.0832970000 -1.1262260000 -1.2314740000
H 2.0380090000 -1.3368590000 0.3078310000
H 2.0720660000 1.1845300000 0.6085740000
H 1.1086540000 1.3700680000 -0.9267470000
P -1.4564700000 0.0645590000 -0.1734540000
H 0.2733160000 -0.2038730000 1.6204270000
H -2.1279150000 -0.6201230000 0.8791690000
