12
0 1
Si 1.9618320000 -0.5687580000 -0.0000070000
S -0.0376760000 0.4296370000 0.0000030000
O -0.2653840000 1.1263930000 -1.2487330000
O -0.9187620000 -0.9533400000 -0.0000030000
C -2.3599580000 -0.7960690000 -0.0000010000
H -2.7568170000 -1.8087700000 -0.0000070000
H -2.6807380000 -0.2643180000 -0.8970210000
H -2.6807370000 -0.2643280000 0.8970250000
O -0.2653770000 1.1263780000 1.2487490000
H 2.0517890000 -1.3770580000 -1.2275850000
H 2.0517930000 -1.3770730000 1.2275600000
H 2.9078130000 0.5609190000 -0.0000020000
