7
0 1
Cl 1.4804760000 0.1132900000 1.7037850000
Cl 2.4154380000 -0.0754220000 -1.1753270000
B 1.1123630000 0.0032070000 -0.0018240000
Si -0.8037640000 -0.0368780000 -0.6519150000
Cl -1.7466820000 -1.6938870000 0.1599410000
Cl -1.7586290000 1.6923840000 -0.0267090000
H -0.9493630000 -0.1179490000 -2.1128180000
