21
0 1
C -1.2079570000 -0.1409880000 -0.2339910000
O -0.0000000000 -0.0000010000 0.5216040000
C 1.2079570000 0.1409890000 -0.2339910000
C 1.7590130000 -1.2308230000 -0.6300700000
C -1.7590120000 1.2308250000 -0.6300670000
H -1.9853170000 1.8148510000 0.2660480000
H -2.6747870000 1.1287260000 -1.2199800000
H -1.0369840000 1.7917470000 -1.2289530000
C 2.1803530000 0.9252580000 0.6392470000
H 2.3543640000 0.3896320000 1.5763690000
H 1.7690970000 1.9074560000 0.8807840000
H 3.1401190000 1.0603100000 0.1332150000
C -2.1803530000 -0.9252600000 0.6392450000
H -1.0023710000 -0.7211500000 -1.1450080000
H -2.3543640000 -0.3896360000 1.5763670000
H -1.7690970000 -1.9074580000 0.8807790000
H -3.1401190000 -1.0603110000 0.1332110000
H 1.0369840000 -1.7917440000 -1.2289570000
H 1.9853170000 -1.8148520000 0.2660440000
H 2.6747880000 -1.1287230000 -1.2199820000
H 1.0023710000 0.7211520000 -1.1450060000
