7
0 2
P 0.3422160000 -0.0000030000 0.1270280000
S -1.6952750000 0.0000020000 -0.1719630000
O 0.5191640000 -0.0000430000 1.5918370000
O 1.0169050000 -1.1831200000 -0.6997110000
H 0.7837180000 -2.0505360000 -0.3469700000
O 1.0169000000 1.1831620000 -0.6996480000
H 0.7836940000 2.0505590000 -0.3468720000
