18
0 1
Si -0.8668430000 1.2265700000 0.8052000000
Si 0.8668440000 1.2265700000 -0.8051990000
C 2.2717100000 -0.8929240000 0.4333620000
O 1.6170600000 -1.2736510000 1.3791170000
C 1.6959350000 -0.4958480000 -0.8881160000
H 0.8857290000 -1.1759430000 -1.1687470000
H 2.4628470000 -0.4840950000 -1.6670040000
H 1.8798160000 2.2514460000 -0.4432510000
H 0.3515810000 1.5495520000 -2.1560130000
H 3.3739380000 -0.7911090000 0.5314600000
C -1.6959350000 -0.4958480000 0.8881160000
H -1.8798150000 2.2514470000 0.4432520000
H -0.3515800000 1.5495500000 2.1560130000
C -2.2717110000 -0.8929230000 -0.4333620000
H -0.8857290000 -1.1759440000 1.1687450000
H -2.4628470000 -0.4840960000 1.6670040000
O -1.6170600000 -1.2736490000 -1.3791190000
H -3.3739400000 -0.7911140000 -0.5314580000
