10
0 1
C 0.5065730000 0.0078730000 -0.3979910000
Si -1.3560090000 0.0133880000 0.0352350000
O 1.1434400000 -1.1826750000 0.0502810000
H 1.0246160000 -1.2320770000 1.0066660000
O 1.0736090000 1.1622830000 0.1908170000
H 2.0088580000 1.1888800000 -0.0484000000
H -2.0000290000 1.3046300000 -0.2928640000
H -1.4657360000 -0.2512660000 1.4907080000
H -2.0259160000 -1.0778970000 -0.7073800000
H 0.6665050000 -0.0038050000 -1.4828590000
