12
0 1
C -0.0000000000 -0.0000000000 1.3880920000
C -0.0000000000 1.2084150000 0.6994440000
C 0.0000000000 1.2084150000 -0.6994440000
C 0.0000000000 -0.0000000000 -1.3880920000
C -0.0000000000 -1.2084150000 -0.6994440000
C -0.0000000000 -1.2084150000 0.6994440000
H -0.0000000000 -0.0000000000 2.4690170000
Cl -0.0000000000 2.6898550000 1.6108990000
Cl -0.0000000000 -2.6898550000 1.6108990000
H 0.0000000000 -0.0000000000 -2.4690170000
Cl 0.0000000000 2.6898550000 -1.6108990000
Cl -0.0000000000 -2.6898550000 -1.6108990000
