18
0 1
C 3.7236310000 0.1270220000 0.3490000000
C 2.8497710000 1.2041280000 0.4782350000
C 1.5209910000 1.0934220000 0.0739060000
C 3.2613280000 -1.0719660000 -0.1909810000
C 1.9356010000 -1.1976430000 -0.5957380000
C 1.0716860000 -0.1140270000 -0.4577890000
H 4.7561960000 0.2213530000 0.6638760000
H 3.2008720000 2.1421550000 0.8932780000
H 0.8371470000 1.9286380000 0.1594670000
H 3.9335380000 -1.9158060000 -0.2978550000
H 1.5580000000 -2.1207400000 -1.0178740000
O -0.2260330000 -0.2683240000 -0.9053850000
Si -1.6701270000 0.1629940000 -0.3052430000
O -2.8411780000 -0.2879680000 -1.3323220000
Cl -1.9589420000 -0.7912670000 1.5181640000
H -3.0185780000 -1.2234550000 -1.4567320000
O -1.7156090000 1.7718570000 -0.1009360000
H -2.4988830000 2.1673370000 0.2898060000
