23
0 2
P 0.3558210000 1.6834620000 -0.6667640000
C 1.6816230000 1.4151700000 0.6293610000
C 1.8739480000 -0.0109680000 1.1861260000
H 1.4609140000 2.0867050000 1.4674530000
H 2.6226600000 1.7657950000 0.1922570000
C 2.5076500000 -1.0190550000 0.2019910000
C 1.6246110000 -1.4510880000 -0.8795900000
N 0.9217070000 -1.8138060000 -1.7188650000
C -1.1761230000 1.5181020000 0.4007380000
C -2.3799230000 0.9009000000 -0.3297270000
H -1.4410590000 2.5327530000 0.7231420000
H -0.9605680000 0.9516150000 1.3112740000
C -2.2253950000 -0.6060580000 -0.6358560000
H -2.5514550000 1.4156000000 -1.2801800000
H -3.2797870000 1.0468520000 0.2756060000
C -1.9842700000 -1.3935140000 0.5714260000
H -1.3915630000 -0.7878500000 -1.3213310000
H -3.1287640000 -0.9840980000 -1.1230010000
N -1.7650850000 -1.9737860000 1.5439490000
H 2.8101600000 -1.9167020000 0.7497610000
H 3.4154230000 -0.5979130000 -0.2426740000
H 0.9311520000 -0.4194370000 1.5586630000
H 2.5464920000 0.0469740000 2.0480930000
