14
0 1
Si -2.3324470000 -0.2132200000 -0.3647270000
C -0.9768020000 0.0935160000 0.9403270000
C 0.3975550000 0.1172450000 0.3507150000
S 1.1720370000 1.4719490000 -0.1734780000
O 0.8860970000 -1.1246160000 0.2763060000
C 2.1850710000 -1.3435000000 -0.2997310000
H 2.3418270000 -2.4182200000 -0.2370810000
H 2.9454700000 -0.8035610000 0.2660660000
H 2.2021010000 -1.0054360000 -1.3366950000
H -3.6347020000 -0.2861260000 0.3374860000
H -2.0811640000 -1.4921720000 -1.0649140000
H -2.3578860000 0.8944790000 -1.3425570000
H -1.0478480000 -0.7100160000 1.6798740000
H -1.1898530000 1.0483070000 1.4213390000
