16
0 1
F -0.1028700000 2.1433490000 0.1834580000
P -0.0167570000 0.9188470000 -0.8759430000
S 1.7172540000 -0.1225060000 0.1738230000
S -1.7203480000 -0.3292870000 -0.1156230000
O 2.8176880000 0.8017820000 -0.0320190000
O 1.3657400000 -0.5601790000 1.5147430000
O -2.9187580000 0.2798850000 -0.6606640000
O -1.3420470000 -1.6866670000 -0.4873260000
C 1.9689160000 -1.5790360000 -0.8434350000
H 2.8192510000 -2.1008200000 -0.4003760000
H 2.2030540000 -1.2600310000 -1.8585420000
H 1.0663070000 -2.1874510000 -0.8015770000
C -1.7750300000 -0.1751090000 1.6705880000
H -1.9120340000 0.8779770000 1.9118740000
H -0.8498620000 -0.5686170000 2.0853390000
H -2.6443210000 -0.7589190000 1.9793250000
