16
0 1
C -1.1131880000 -0.8594370000 0.0000000000
C 0.1181900000 -1.5138510000 0.0000000000
C 1.2872050000 -0.7695670000 0.0000000000
C -1.1767600000 0.5257700000 0.0000000000
C 0.0000000000 1.2762630000 0.0000000000
C 1.2392160000 0.6306270000 0.0000000000
Cl -2.5974880000 -1.8021560000 0.0000000000
H 0.1569500000 -2.5955610000 0.0000000000
H 2.2559670000 -1.2536280000 0.0000000000
H -2.1375920000 1.0242740000 0.0000000000
H -0.0689620000 2.3554200000 0.0000000000
O 2.4447620000 1.2637130000 0.0000000000
C 2.4645690000 2.6842560000 0.0000000000
H 3.5159590000 2.9665890000 0.0000000000
H 1.9807460000 3.0927490000 0.8943790000
H 1.9807460000 3.0927490000 -0.8943790000
