23
0 1
C 2.2260240000 1.0991000000 -0.1278610000
O 1.2681440000 1.6305850000 -0.6038800000
S 2.4200520000 -0.7272600000 -0.0071540000
S 0.6496580000 -1.3947600000 -0.8379420000
C -0.5534260000 -1.0603550000 0.5103010000
O -0.2516780000 -0.5420640000 1.5441630000
C 3.4013950000 1.8174560000 0.4958460000
H 3.1491440000 2.0390180000 1.5369260000
H 3.5596200000 2.7592480000 -0.0308600000
H 4.3129710000 1.2181170000 0.4818540000
C -1.9570640000 -1.4997420000 0.1305660000
C -2.9967100000 -0.4046560000 0.4225780000
H -2.1672270000 -2.3908250000 0.7332660000
H -1.9912870000 -1.8055050000 -0.9197070000
C -2.8685650000 0.8200810000 -0.4912170000
H -2.8904340000 -0.1004700000 1.4681950000
H -3.9960060000 -0.8411080000 0.3179110000
C -3.8993690000 1.9055530000 -0.1710200000
H -2.9813660000 0.5039810000 -1.5354030000
H -1.8597610000 1.2379720000 -0.4063630000
H -4.9214730000 1.5287310000 -0.2795290000
H -3.7890900000 2.7643050000 -0.8380200000
H -3.7858950000 2.2660700000 0.8558280000
