14
0 1
C 1.2065230000 0.1673760000 0.0000000000
C -0.0000000000 0.8757000000 0.0000000000
C 1.1785660000 -1.2233840000 0.0000000000
C -0.0532870000 -1.8687020000 0.0000000000
C -1.2026010000 -1.0809090000 0.0000000000
N -1.1879700000 0.2527810000 0.0000000000
H 2.1499150000 0.7013580000 0.0000000000
H 2.1023670000 -1.7915590000 0.0000000000
H -0.1269380000 -2.9496410000 0.0000000000
H -2.1856370000 -1.5451300000 0.0000000000
C -0.0359320000 2.3818170000 0.0000000000
H 0.9667050000 2.8131850000 0.0000000000
H -0.5751170000 2.7454670000 0.8788550000
H -0.5751170000 2.7454670000 -0.8788550000
