20
0 1
F -2.7097680000 -0.3677970000 -0.5329130000
O -0.3189600000 -2.3675370000 -0.5026220000
O -1.0429800000 2.3767960000 -0.2047490000
P -1.5952400000 -0.1929740000 0.6326920000
N 0.7413000000 0.9345700000 0.0030100000
C -0.5899370000 1.2742770000 0.0163000000
C -0.2099240000 -1.2603250000 -0.0509950000
C 1.1333840000 -0.4931370000 0.0557100000
C 1.7411430000 1.9786800000 -0.1991970000
H 2.1310090000 1.9688110000 -1.2210130000
H 1.2589620000 2.9384780000 -0.0241900000
C 2.0417690000 -0.8814740000 -1.1163170000
H 3.0333080000 -0.4359020000 -1.0115370000
H 2.1499440000 -1.9660690000 -1.1411490000
H 1.6095170000 -0.5620290000 -2.0669010000
H 2.5709830000 1.8533810000 0.4998150000
C 1.7854540000 -0.8492890000 1.4078820000
H 2.7195720000 -0.2978710000 1.5401260000
H 2.0133370000 -1.9166780000 1.4446160000
H 1.1249700000 -0.6057940000 2.2436680000
