7
0 1
P 1.1486160000 -0.0801630000 -0.1171860000
B -0.6688310000 0.5729490000 0.0188520000
O -1.7685220000 -0.2140820000 0.0066740000
H -0.8595140000 1.7505400000 0.0097030000
H -1.5877870000 -1.1596620000 0.0236990000
H 1.0199520000 -1.2607770000 0.6605820000
H 1.6904450000 0.7202530000 0.9161510000
