10
0 1
Si 0.0757290000 -0.0033670000 0.3444800000
O 0.6214980000 1.4198650000 -0.2932960000
H 1.5152270000 1.6967210000 -0.0775960000
O 0.9693040000 -1.2974340000 -0.1609410000
H 0.9457710000 -1.5322780000 -1.0918830000
C -1.7085420000 -0.1125140000 -0.1679610000
H -1.8107810000 -0.1010450000 -1.2574170000
H -2.2706680000 0.7390560000 0.2255490000
H -2.1692190000 -1.0292500000 0.2100400000
H 0.2543040000 -0.0304260000 1.8102380000
