10
0 1
O -0.9474550000 -0.4218860000 -0.7893210000
S 0.4620310000 -0.1509260000 0.0748500000
C 0.6195640000 1.6180040000 -0.0663110000
H 0.7783470000 1.8609410000 -1.1149270000
H 1.4772700000 1.9080700000 0.5403170000
H -0.2963950000 2.0636940000 0.3169900000
O 1.4466610000 -0.8150940000 -0.7256970000
O 0.2079160000 -0.4996270000 1.4456140000
O -2.0610060000 0.1613750000 -0.0723870000
H -2.2380290000 -0.5240490000 0.5922090000
