20
0 1
Si -0.6612560000 0.0175160000 0.8468470000
C 0.4684280000 -1.4843780000 0.6469900000
C 1.4588310000 -1.3024260000 -0.5262450000
C 2.2928860000 -0.0114080000 -0.4432300000
C 1.4742940000 1.2877670000 -0.5492490000
C 0.4865770000 1.5021080000 0.6194630000
P -2.3978490000 -0.1111500000 -0.6395400000
H -0.1108520000 -2.4047890000 0.5241950000
H 1.0320580000 -1.5999140000 1.5819570000
H 0.9109130000 -1.3092950000 -1.4770390000
H 2.1368210000 -2.1621730000 -0.5656630000
H 3.0395940000 -0.0230190000 -1.2442780000
H 2.8566730000 -0.0067580000 0.4993130000
H 0.9250670000 1.2837730000 -1.4991900000
H 2.1621660000 2.1387850000 -0.6044890000
H 1.0505280000 1.6248480000 1.5540180000
H -0.0816690000 2.4269510000 0.4806000000
H -1.6339600000 0.2501940000 -1.7811250000
H -2.8438880000 1.2169410000 -0.4045780000
H -1.3042190000 0.0365050000 2.1871470000
