11
0 1
C 0.5638330000 -1.0608140000 1.5554670000
Si 0.5638330000 -0.0277350000 -0.0000000000
C 0.5638330000 -1.0608140000 -1.5554670000
H -0.3011460000 -1.7286400000 -1.5845940000
H 1.4705020000 -1.6730690000 -1.6007190000
H 0.5362810000 -0.4280910000 -2.4457230000
H 0.5362810000 -0.4280910000 2.4457230000
H 1.4705020000 -1.6730690000 1.6007190000
H -0.3011460000 -1.7286400000 1.5845940000
Cl -1.1631000000 1.1682820000 0.0000000000
H 1.7017720000 0.9168630000 0.0000000000
