14
0 2
O -0.4754360000 -0.0000020000 1.6683250000
Si 0.0243870000 0.0000000000 0.0799720000
C -1.6506100000 -0.0000010000 -0.8039370000
H -2.2316850000 -0.8882340000 -0.5510970000
H -1.4586070000 0.0000010000 -1.8824610000
H -2.2316870000 0.8882290000 -0.5510940000
C 1.0029790000 1.5441330000 -0.3402040000
H 0.4227760000 2.4447870000 -0.1240500000
H 1.2727990000 1.5554340000 -1.4013050000
H 1.9303920000 1.5938050000 0.2376210000
C 1.0029820000 -1.5441310000 -0.3402060000
H 0.4227800000 -2.4447860000 -0.1240540000
H 1.9303940000 -1.5938020000 0.2376220000
H 1.2728050000 -1.5554290000 -1.4013060000
