7
0 1
Si -0.0012120000 0.0000000000 0.0000000000
S -1.3036390000 1.5148530000 0.7491770000
Cl 1.2516300000 0.8002320000 -1.4417330000
Cl 1.2516230000 -0.8002420000 1.4417330000
H -0.4108240000 2.5076710000 0.5802830000
S -1.3036520000 -1.5148420000 -0.7491770000
H -0.4108460000 -2.5076680000 -0.5802820000
