11
0 1
O -0.4682190000 -0.3295480000 0.0000000000
C 0.6165630000 0.4273000000 -0.0000000000
C -1.7376180000 0.4006850000 -0.0000000000
O 0.6946100000 1.6120360000 -0.0000000000
Cl 2.0510430000 -0.6382780000 0.0000000000
C -2.8420740000 -0.6322240000 0.0000000000
H -1.7613160000 1.0387840000 -0.8852470000
H -1.7613160000 1.0387850000 0.8852460000
H -2.7827640000 -1.2664500000 -0.8864470000
H -3.8119300000 -0.1284130000 0.0000000000
H -2.7827640000 -1.2664490000 0.8864480000
