8
0 2
S -1.8749250000 -0.7842140000 0.0000080000
C -0.3536990000 -0.0583770000 -0.0000110000
S -0.5024570000 1.6156110000 -0.0000000000
S 1.1002780000 -0.9983510000 -0.0000050000
C 2.4151900000 0.2612720000 0.0000010000
H 3.3486890000 -0.3028290000 0.0000040000
H 2.3580130000 0.8783600000 0.8954560000
H 2.3580190000 0.8783610000 -0.8954530000
