21
0 1
C 2.7686710000 -0.5189270000 -1.0436380000
C 1.6263110000 -1.1388130000 -0.5476100000
C 3.2220110000 0.6757220000 -0.4842300000
C 2.5251140000 1.2414330000 0.5792500000
C 1.3810720000 0.6166970000 1.0787390000
C 0.9135800000 -0.5826200000 0.5243940000
H 1.2790110000 -2.0648010000 -0.9933640000
B -2.2584720000 0.6547180000 -0.2510630000
O -1.3745850000 1.6938860000 -0.3007410000
O -3.5894890000 0.9269410000 -0.3510740000
H 3.3071720000 -0.9687810000 -1.8703180000
H 2.8715890000 2.1656910000 1.0280390000
H 4.1117190000 1.1576880000 -0.8727150000
H 0.8547850000 1.0550540000 1.9208520000
C -0.3312040000 -1.2476050000 1.0595780000
H -3.7501670000 1.8705000000 -0.4764410000
H -0.4461230000 1.4417390000 -0.2369160000
P -1.7535410000 -1.2293290000 -0.1977160000
H -0.6323720000 -0.7833860000 1.9995290000
H -0.1312090000 -2.3029630000 1.2647920000
H -2.7896640000 -1.6463470000 0.6732270000
