28
0 1
O -0.4878950000 -0.0006550000 0.5511870000
O 0.4878950000 -0.0006560000 -0.5511870000
C -1.8090750000 -0.0000170000 -0.0319530000
C -2.0229150000 1.2696050000 -0.8635380000
H -1.8475740000 2.1565260000 -0.2500010000
H -3.0472210000 1.3075510000 -1.2444000000
H -1.3365790000 1.2948610000 -1.7100480000
C -2.7015610000 -0.0003290000 1.2135780000
H -2.5127280000 0.8859900000 1.8230960000
H -2.5138160000 -0.8876860000 1.8219160000
H -3.7526490000 0.0005300000 0.9152190000
C -2.0237000000 -1.2687320000 -0.8647140000
H -1.3378490000 -1.2933810000 -1.7116330000
H -3.0482350000 -1.3060050000 -1.2450350000
H -1.8482790000 -2.1563050000 -0.2521430000
C 1.8090750000 -0.0000170000 0.0319530000
C 2.0229150000 1.2696050000 0.8635370000
H 1.8475740000 2.1565260000 0.2500000000
H 3.0472210000 1.3075510000 1.2444000000
H 1.3365790000 1.2948610000 1.7100480000
C 2.0237000000 -1.2687310000 0.8647140000
H 1.8482790000 -2.1563050000 0.2521430000
H 3.0482350000 -1.3060050000 1.2450360000
H 1.3378490000 -1.2933810000 1.7116330000
C 2.7015610000 -0.0003290000 -1.2135780000
H 2.5127280000 0.8859890000 -1.8230960000
H 2.5138160000 -0.8876870000 -1.8219160000
H 3.7526490000 0.0005290000 -0.9152190000
