11
0 1
C 0.3898470000 0.0144640000 -0.0203910000
Si -1.5318110000 -0.0198770000 0.0038590000
O 0.8038600000 1.3025810000 -0.3861900000
H 1.6973740000 1.2197030000 -0.7501210000
O 0.8753880000 -0.9386050000 -0.9294070000
H 1.4979690000 -1.4894110000 -0.4368590000
O 0.9440950000 -0.3501880000 1.2411090000
H 0.9721380000 0.4495010000 1.7782580000
H -2.0172520000 0.9766280000 0.9874040000
H -1.9602940000 -1.3716810000 0.4213690000
H -2.0704140000 0.2964560000 -1.3358250000
