11
0 2
C 0.5895070000 0.0543120000 -0.0000000000
C 0.5895070000 -1.2685970000 -0.7498390000
C 0.5895070000 -1.2685970000 0.7498390000
H -0.3179970000 -1.5697810000 1.2613320000
H 1.5008680000 -1.5519920000 1.2631890000
H 1.5008680000 -1.5519920000 -1.2631890000
H -0.3179970000 -1.5697810000 -1.2613320000
Si -0.9005760000 1.1782380000 0.0000000000
H 1.5461400000 0.5743480000 -0.0000000000
H -0.9574780000 2.0355810000 -1.2138030000
H -0.9574780000 2.0355810000 1.2138030000
