17
0 1
C 0.9728490000 0.2823470000 -0.1374140000
C -0.4838400000 0.0691040000 -0.0875560000
C -1.3156580000 0.9565170000 0.6098850000
H -0.8899810000 1.8149560000 1.1090810000
C -2.6846080000 0.7258530000 0.6604560000
H -3.3219350000 1.4113700000 1.2063750000
C -3.2370830000 -0.3781600000 0.0127600000
H -4.3066360000 -0.5499570000 0.0513890000
C -2.4140150000 -1.2609810000 -0.6826940000
H -2.8394740000 -2.1195850000 -1.1885180000
C -1.0416070000 -1.0457550000 -0.7302010000
H -0.4014170000 -1.7328890000 -1.2677850000
N 1.7347580000 -0.9585610000 -0.1606070000
N 1.6728950000 1.3443490000 -0.2519250000
F 1.5385360000 -1.5287120000 1.1165880000
F 3.0855360000 -0.6682610000 -0.1631550000
F 0.8347770000 2.4616440000 -0.3861240000
