8
0 2
H -2.4929350000 0.0275430000 -0.0000030000
N -0.2333950000 0.3447200000 0.0000050000
B -1.3836230000 -0.4071990000 -0.0000090000
C 1.1417030000 -0.1504680000 -0.0000010000
H -0.2956680000 1.3588820000 0.0000220000
H 1.1222370000 -1.2401410000 -0.0000290000
H 1.6840110000 0.1897180000 0.8880240000
H 1.6840200000 0.1897640000 -0.8880030000
