18
0 1
C 2.1504760000 -0.0661800000 0.0000000000
C 1.3027650000 -1.1675670000 0.0000120000
C -0.0698050000 -0.9511650000 0.0000090000
C 1.6746130000 1.2409750000 -0.0000130000
C 0.3022660000 1.4460110000 -0.0000150000
C -0.5732110000 0.3543920000 -0.0000040000
H 1.7233420000 -2.1631290000 0.0000220000
H -0.7531080000 -1.7892000000 0.0000170000
H 2.3756810000 2.0635350000 -0.0000220000
H -0.1115830000 2.4460970000 -0.0000250000
C -2.0440270000 0.6487840000 -0.0000080000
O -2.7810920000 -0.4958340000 0.0000040000
N -4.3540760000 -0.2332230000 0.0001250000
O -4.8781390000 -1.2422840000 -0.0001440000
O -2.5053280000 1.7595740000 0.0000130000
N 3.6170670000 -0.2933890000 0.0000030000
O 4.0080670000 -1.4517140000 0.0000270000
O 4.3397740000 0.6924440000 0.0000020000
