8
0 1
C 0.4177050000 0.1021870000 0.3885300000
C 1.2640870000 -1.0394840000 -0.1118840000
Cl -1.3280530000 -0.1288670000 -0.0552860000
F 0.8472220000 1.2825830000 -0.1654250000
H 0.4248560000 0.2170080000 1.4712910000
H 1.1902880000 -1.1107320000 -1.1977570000
H 0.9404740000 -1.9815060000 0.3320530000
H 2.3055300000 -0.8535010000 0.1632190000
