14
0 1
C 1.1830310000 -1.2114620000 -0.0000070000
C -0.2111680000 -1.2069970000 -0.0000100000
C -0.9339080000 -0.0083290000 -0.0000030000
C 1.8480100000 0.0029330000 -0.0000020000
C 1.1684790000 1.2144600000 0.0000010000
C -0.2214860000 1.2004660000 0.0000010000
H 1.7498490000 -2.1341240000 -0.0000120000
H -0.7416810000 -2.1527000000 -0.0000200000
H -0.7559520000 2.1434250000 0.0000050000
H 1.7291930000 2.1410850000 0.0000030000
P -2.7794020000 -0.1145450000 -0.0000040000
F 3.1975440000 0.0130640000 -0.0000010000
H -3.0330150000 0.8283590000 -1.0305460000
H -3.0330070000 0.8281150000 1.0307650000
