20
0 1
O -0.8624500000 -0.0820830000 -0.7891660000
C -1.8133140000 0.0500890000 0.1648640000
C 0.0802270000 -1.1736180000 -0.6297250000
O -1.9175170000 -0.6787340000 1.1188710000
C -2.7074390000 1.2279710000 -0.1355020000
C 1.2867670000 -0.7635920000 0.2057600000
H -3.0841080000 1.1657650000 -1.1580320000
H -2.1334630000 2.1544000000 -0.0536370000
H -3.5327860000 1.2455100000 0.5730660000
C 2.1041690000 0.3850530000 -0.3958080000
H 1.9232520000 -1.6504100000 0.3191510000
H 0.9437490000 -0.5009720000 1.2119220000
C 3.2946740000 0.7902040000 0.4773400000
H 1.4494580000 1.2481770000 -0.5511700000
H 2.4618010000 0.0904210000 -1.3901270000
H 2.9643660000 1.1202250000 1.4671000000
H 3.8589340000 1.6101630000 0.0252020000
H 3.9844910000 -0.0471850000 0.6224720000
H 0.3723540000 -1.4283450000 -1.6501050000
H -0.4388220000 -2.0178460000 -0.1750640000
