12
0 1
C 2.9094070000 -0.2753090000 -0.3232100000
C 1.8932080000 0.3264360000 0.2873250000
C 0.5239760000 -0.2727260000 0.4704140000
C -0.5265730000 0.5187610000 -0.3054620000
H 0.2520060000 -0.2688350000 1.5315120000
H 0.5165010000 -1.3133090000 0.1364160000
Cl -2.1985510000 -0.1466420000 -0.0352260000
H -0.3518350000 0.4724240000 -1.3788550000
H -0.5655990000 1.5612040000 0.0082500000
H 3.8759480000 0.2048270000 -0.4255990000
H 2.8139020000 -1.2753750000 -0.7354860000
H 2.0343320000 1.3290060000 0.6882040000
