15
0 1
N 2.8678190000 0.2297920000 0.1893040000
C 1.7174800000 -0.6556390000 0.2338760000
C 0.3833200000 -0.0174480000 -0.1426600000
H 1.8780200000 -1.5129650000 -0.4272560000
H 1.6075740000 -1.0752880000 1.2388260000
O 0.2426340000 1.1443600000 -0.4465440000
O -0.6182480000 -0.9117650000 -0.0947250000
C -1.9445910000 -0.3726900000 -0.4060670000
N -2.4366190000 0.4556520000 0.6432160000
H -2.5548250000 -1.2666950000 -0.5152100000
H -1.8504250000 0.1396510000 -1.3659880000
H 2.7018500000 1.0256030000 0.7984180000
H 2.9540750000 0.6227850000 -0.7434110000
H -3.3777560000 0.2403860000 0.9336620000
H -2.3092600000 1.4423160000 0.4725780000
