22
0 1
C 0.4749650000 2.2251200000 0.6996710000
H 1.2297800000 2.9624200000 0.9773380000
H -0.1968860000 2.0772150000 1.5493130000
H -0.1256870000 2.6278730000 -0.1198590000
F -1.4328030000 -1.3992490000 1.1149500000
O -1.6890560000 1.0715510000 -1.2892380000
N -1.0173510000 -0.2334040000 0.4223200000
C -3.3912800000 -0.2796130000 -0.2346320000
H -4.0646450000 0.2855900000 -0.8758040000
H -3.6868150000 -0.1792840000 0.8110290000
H -3.4446390000 -1.3414270000 -0.4863590000
C 0.3851660000 -0.2588930000 0.1605780000
C -1.9933260000 0.2432740000 -0.4595750000
C 1.1212970000 0.9290150000 0.2918620000
C 0.9951850000 -1.4621960000 -0.2011180000
H 0.3954180000 -2.3604740000 -0.2704410000
C 3.1103070000 -0.3286350000 -0.3444470000
H 4.1765850000 -0.3457220000 -0.5390750000
C 2.4913480000 0.8635240000 0.0153200000
H 3.0815970000 1.7693890000 0.1020940000
C 2.3612050000 -1.4993650000 -0.4451990000
H 2.8352220000 -2.4343100000 -0.7198770000
