17
0 1
F -2.0874130000 -0.9728640000 1.1413800000
P -1.6329460000 -0.7042230000 -0.4287110000
C -1.8176010000 1.1560280000 -0.4480460000
N -0.5977750000 1.7283740000 0.1127840000
H -0.4312570000 2.7151800000 -0.0177530000
C 0.1532690000 -0.4707230000 -0.2304950000
C 1.1562460000 -1.4396500000 -0.3026550000
H 0.8954100000 -2.4694360000 -0.5231240000
C 2.8008590000 0.2511220000 0.1890360000
H 3.8369370000 0.5298160000 0.3488630000
C 0.4824770000 0.8730310000 0.0534420000
C 2.4837910000 -1.0830560000 -0.0937510000
H 3.2679010000 -1.8281010000 -0.1500820000
C 1.8213000000 1.2334030000 0.2648700000
H 2.0875400000 2.2611540000 0.4869350000
H -2.7042400000 1.4368300000 0.1250690000
H -1.9690060000 1.4541340000 -1.4955690000
