10
0 1
H 2.1974560000 -0.7883120000 0.6617170000
H 1.1780980000 -1.9074400000 -0.7390460000
B 1.2174860000 -0.9809340000 0.0113570000
C 0.0533430000 0.0549340000 0.0504410000
C -1.4034050000 -0.3242160000 0.0326200000
N 0.3666170000 1.2968320000 -0.0815710000
H -1.6171600000 -0.9925310000 -0.8078590000
H -2.0233060000 0.5707180000 -0.0434080000
H -1.6697840000 -0.8688890000 0.9450780000
H 1.3813170000 1.4289900000 -0.0006350000
