16
0 1
C 2.2812080000 0.3300750000 -0.0000000000
C 1.8494780000 -0.9987440000 -0.0000000000
C 0.4957580000 -1.3007850000 -0.0000000000
C 1.3363020000 1.3488680000 -0.0000000000
C -0.0304670000 1.0612090000 0.0000000000
C -0.4535480000 -0.2706690000 0.0000000000
H 3.3393720000 0.5628660000 -0.0000000000
H 2.5743270000 -1.8052880000 -0.0000000000
H 0.1427800000 -2.3249870000 -0.0000000000
H 1.6553650000 2.3853690000 -0.0000000000
H -0.7451620000 1.8731290000 0.0000000000
O -1.7582980000 -0.6697370000 0.0000000000
C -2.7707300000 0.3245950000 0.0000000000
H -3.7172220000 -0.2138570000 0.0000000000
H -2.7155450000 0.9566870000 -0.8937870000
H -2.7155450000 0.9566870000 0.8937870000
