13
0 1
Si -0.0804870000 -1.0314050000 -0.0052240000
N 1.2602130000 0.2821510000 -0.0207140000
O 0.9957550000 1.4109620000 -0.4291470000
O 2.3655500000 -0.0745550000 0.3754710000
C -1.7054840000 -0.2590200000 -0.4921290000
C -2.2568090000 0.7771120000 0.5049040000
H -1.5720240000 1.6210740000 0.6051990000
H -2.4075300000 0.3415020000 1.4965690000
H -3.2198810000 1.1670450000 0.1664040000
H -2.4179880000 -1.0836330000 -0.6255260000
H -1.5760580000 0.1930970000 -1.4810280000
H -0.0410800000 -1.5448200000 1.3760420000
H 0.4232180000 -2.0294500000 -0.9667680000
