16
0 2
Si -1.3645490000 -0.6595400000 0.0813440000
C 0.4583340000 -0.6270670000 -0.4397430000
C 1.3553160000 0.3207670000 0.3855100000
H 0.5104470000 -0.3554140000 -1.5014200000
H 0.8466620000 -1.6505420000 -0.3728460000
C -2.2150800000 1.0141560000 -0.1339360000
H -1.7373150000 1.7807980000 0.4867300000
H -3.2661600000 0.9552800000 0.1597750000
H -2.1741100000 1.3476670000 -1.1743170000
C 2.8229550000 0.2927690000 -0.0577610000
H 1.2919920000 0.0518280000 1.4458390000
H 0.9764900000 1.3460650000 0.3091250000
H 3.2444460000 -0.7121300000 0.0418910000
H 3.4334350000 0.9726130000 0.5439480000
H 2.9235140000 0.5915240000 -1.1057080000
H -1.4748590000 -1.0978770000 1.5037470000
