8
0 1
Si -1.6254640000 -0.4077380000 -0.0000100000
C 0.0840340000 0.4909450000 -0.0000870000
O 0.1255520000 1.6928080000 0.0000420000
S 1.6438170000 -0.4558140000 0.0000140000
H 1.0842330000 -1.6769260000 0.0000830000
H -2.3395190000 0.0338270000 -1.2146790000
H -2.3394140000 0.0338190000 1.2147240000
H -1.4584920000 -1.8774940000 -0.0000220000
