18
0 1
C 0.5524690000 -0.0000030000 0.5561760000
C 1.2231840000 -1.2033470000 0.3219360000
C 2.5394680000 -1.2045900000 -0.1317020000
C 3.2010740000 0.0000030000 -0.3594070000
C 2.5394630000 1.2045930000 -0.1316990000
C 1.2231800000 1.2033440000 0.3219390000
H 0.7122890000 2.1442220000 0.4959150000
H 4.2267800000 0.0000050000 -0.7102570000
H 3.0481200000 2.1459970000 -0.3058240000
H 0.7122970000 -2.1442270000 0.4959100000
H 3.0481280000 -2.1459920000 -0.3058280000
C -1.8992310000 -0.0000000000 -0.0864700000
F -3.1584590000 -0.0000050000 0.4097700000
F -1.7852410000 -1.0870270000 -0.8789020000
F -1.7852430000 1.0870370000 -0.8788880000
C -0.8807130000 -0.0000060000 1.0371230000
H -1.0902390000 -0.8812620000 1.6474310000
H -1.0902400000 0.8812420000 1.6474420000
