16
0 1
C -1.0982700000 -0.8906380000 -0.4295360000
C -1.4499680000 0.5995690000 -0.2256030000
C 0.0193950000 -1.1372600000 0.5948100000
H -0.7013700000 -1.0470220000 -1.4356300000
H -1.9571460000 -1.5530970000 -0.3002800000
C 0.8783170000 0.1320620000 0.4860680000
H 0.5955360000 -2.0500000000 0.4127850000
H -0.3986690000 -1.2086840000 1.6064060000
C -0.1443330000 1.2678530000 0.2953650000
H -0.3176810000 1.7881250000 1.2405200000
H 0.2670070000 1.9941260000 -0.4073060000
H -2.2457300000 0.6975530000 0.5188870000
H -1.8153950000 1.0647460000 -1.1431980000
O 1.6922260000 0.1049390000 -0.6956970000
H 1.5115520000 0.2884530000 1.3684220000
H 2.2932440000 -0.6432320000 -0.6216570000
