13
0 1
C 1.1711160000 -1.1457750000 0.0000000000
C -0.0667810000 -1.7734900000 0.0000000000
C -1.2215610000 -0.9806990000 -0.0000000000
N -1.2061200000 0.3460810000 -0.0000000000
C 0.0000000000 0.9783860000 -0.0000000000
C 1.2010070000 0.2465320000 0.0000000000
H -0.1499470000 -2.8544380000 0.0000000000
H -2.2022120000 -1.4503550000 -0.0000000000
H 2.1457050000 0.7779660000 0.0000000000
H 2.0884190000 -1.7239500000 0.0000000000
B 0.0058140000 2.5275780000 -0.0000000000
H -1.0182920000 3.1302280000 -0.0000000000
H 1.0474100000 3.1103740000 -0.0000000000
