7
0 1
S 1.8839250000 -0.0821510000 0.0196080000
O 0.3716010000 -0.2204750000 -0.7758730000
C -0.7413730000 -0.0045000000 -0.0146550000
F -1.7915550000 -0.1763260000 -0.8140560000
F -0.7819020000 1.2417940000 0.4865000000
F -0.8386950000 -0.8581100000 1.0138510000
H 2.0420020000 1.2389800000 -0.1954830000
