10
0 2
B -0.8931080000 0.7088820000 -0.0000010000
C 0.6789990000 0.7549900000 0.0000000000
C 1.3916100000 -0.6132080000 0.0000020000
H 1.1308580000 -1.2036550000 -0.8845570000
H 1.1308570000 -1.2036530000 0.8845620000
H 2.4786630000 -0.4997170000 0.0000020000
O -1.6830400000 -0.3702260000 -0.0000020000
H -1.2235710000 -1.2261820000 -0.0000010000
H 0.9946970000 1.3499560000 0.8663030000
H 0.9946980000 1.3499540000 -0.8663040000
