9
0 1
S 1.4357580000 -0.3559900000 -0.0000030000
Si -0.4928570000 0.6435430000 0.0000030000
C -1.7986810000 -0.6978420000 0.0000010000
H -1.7116800000 -1.3311200000 -0.8863100000
H -2.7961410000 -0.2489560000 0.0000080000
H -1.7116720000 -1.3311310000 0.8863040000
H 2.1639440000 0.7748440000 -0.0000040000
H -0.6122460000 1.5048280000 -1.1994330000
H -0.6122430000 1.5048220000 1.1994430000
