20
0 1
C 2.8072240000 0.1667250000 0.0088320000
C 2.2133430000 1.4402710000 0.0040720000
C 0.8398880000 1.5634700000 -0.0074230000
C 1.9988380000 -0.9763970000 0.0019670000
C 0.6152600000 -0.8382030000 -0.0094840000
C 0.0158340000 0.4229470000 -0.0144310000
H 2.8601640000 2.3088450000 0.0094450000
H 0.3722880000 2.5400260000 -0.0113580000
H 2.4324770000 -1.9666780000 0.0061760000
H 0.0005970000 -1.7303070000 -0.0130260000
C -1.4512550000 0.6338800000 -0.0276210000
S -2.4674620000 -0.9085880000 -0.0683780000
N -4.1730440000 0.0291060000 0.0826420000
O -5.0973690000 -0.6710000000 0.0690160000
O -1.9770890000 1.7146570000 -0.0192690000
O 4.1605170000 0.1513490000 0.0201390000
C 4.8359990000 -1.1030800000 0.0250530000
H 4.5869350000 -1.6858010000 0.9177740000
H 5.8977260000 -0.8650390000 0.0336540000
H 4.6012450000 -1.6851080000 -0.8719900000
