14
0 1
Si -2.0818620000 -0.6173210000 -0.1943490000
Si -0.4080090000 0.9195490000 0.4488560000
C 1.1595220000 0.7670550000 -0.6447140000
H -0.1114030000 0.7613260000 1.8937750000
H -0.9121810000 2.2976610000 0.2300820000
H -2.3896430000 -0.4613400000 -1.6364290000
H -3.3232720000 -0.3851260000 0.5837290000
N 2.1479610000 -0.0299290000 -0.5857810000
H -1.6272030000 -2.0087430000 0.0433360000
C 2.2092260000 -1.0519730000 0.4414710000
H 2.2980200000 -2.0274980000 -0.0457330000
H 1.3512380000 -1.0753140000 1.1281230000
H 3.1233870000 -0.9077200000 1.0251030000
H 1.2010390000 1.4945630000 -1.4651660000
