15
0 1
N -1.3775790000 0.2164240000 0.3812790000
O -2.5701260000 -0.5781950000 0.2985000000
O -1.5399640000 1.3002740000 -0.5351450000
C 1.2837260000 0.3289140000 -0.2907580000
C 2.6928200000 -0.2399000000 -0.3263960000
C 2.2117310000 0.4788770000 0.8977600000
H 3.4059930000 0.2542060000 -0.9747030000
H 2.8127040000 -1.3158200000 -0.2678040000
H 2.5979980000 1.4706020000 1.1000380000
H 2.0033150000 -0.1107080000 1.7831990000
H -1.7627660000 2.0420950000 0.0407010000
H -3.0129810000 -0.3921560000 1.1346260000
P -0.0879390000 -0.8664480000 -0.1881590000
H 1.1021280000 1.2169990000 -0.8837700000
H -0.4331970000 -0.8674420000 -1.5693290000
