18
0 1
C -2.9047640000 -0.2868350000 0.2341040000
C -2.0058150000 0.7625570000 0.1968770000
C -0.6442330000 0.5238400000 -0.0183090000
C -2.4392290000 -1.5903650000 0.0374340000
C -1.0932630000 -1.8310730000 -0.1817660000
C -0.1550730000 -0.7873470000 -0.2069710000
H -3.1322070000 -2.4236960000 0.0562570000
H -0.7186220000 -2.8338190000 -0.3442920000
O 1.1164490000 -1.1248330000 -0.4693570000
Si 2.6152540000 -0.8604660000 0.2449890000
H -3.9558110000 -0.0952590000 0.4087960000
N 0.2303220000 1.6982860000 -0.0662630000
O 1.4482680000 1.5231130000 -0.0061150000
O -0.2877210000 2.7998020000 -0.1618870000
H -2.3246030000 1.7873110000 0.3254720000
H 3.4709750000 0.0030940000 -0.5807010000
H 3.2010080000 -2.2199080000 0.2644890000
H 2.4717450000 -0.3885090000 1.6346320000
