10
0 1
Cl -0.1114490000 1.6315600000 -0.0000110000
Cl 1.8563320000 -0.6584280000 -0.0000110000
B 0.1716310000 -0.1115170000 0.0000280000
C -0.9849070000 -1.1595410000 0.0000180000
C -2.4299020000 -0.6433490000 0.0000100000
H -0.8117480000 -1.8179390000 -0.8634460000
H -2.6345230000 -0.0291990000 0.8799810000
H -3.1397590000 -1.4740510000 0.0000040000
H -2.6345120000 -0.0291950000 -0.8799600000
H -0.8117590000 -1.8179430000 0.8634820000
