20
0 1
Cl -1.9539160000 2.1988100000 -0.1434780000
S -1.1996240000 -1.0552050000 0.3632330000
O -1.3827080000 -2.3024980000 -0.3663180000
O -1.5691510000 -0.9178240000 1.7582600000
P -2.5102820000 0.3005210000 -0.8271100000
C 0.4981610000 -0.5373700000 0.1832480000
C 1.0486470000 0.3401080000 1.1154330000
C 2.3750530000 0.7321890000 0.9688800000
C 3.1578340000 0.2592170000 -0.0900490000
C 2.5774250000 -0.6258350000 -1.0089810000
C 1.2542820000 -1.0279410000 -0.8815360000
C 4.6037360000 0.6649640000 -0.2254530000
H 0.4491980000 0.6930660000 1.9442110000
H 2.8091720000 1.4143730000 1.6916250000
H 3.1724850000 -1.0092900000 -1.8309590000
H 0.8131040000 -1.7274560000 -1.5803290000
H 4.8077760000 1.5985310000 0.3018880000
H 4.8841410000 0.7948300000 -1.2732320000
H 5.2612390000 -0.1032280000 0.1955040000
H -1.6082980000 0.2654520000 -1.9194450000
