9
0 1
C 0.9090040000 0.7400610000 -0.0000010000
O 1.9394330000 -0.2218910000 0.0000000000
H 2.7824590000 0.2390370000 0.0000090000
C -0.4178620000 0.0064980000 -0.0000000000
H 0.9197180000 1.3778170000 -0.8926390000
H 0.9197180000 1.3778200000 0.8926350000
F -1.4263840000 0.9101510000 -0.0000030000
F -0.5692650000 -0.7716780000 1.0856530000
F -0.5692640000 -0.7716840000 -1.0856500000
