13
0 1
C -0.9571620000 -0.0020300000 0.0000000000
C -0.2741800000 1.2115130000 0.0000000000
C 1.1146390000 1.2193610000 -0.0000000000
C -0.2642830000 -1.2059530000 -0.0000000000
C 1.1282940000 -1.1956830000 -0.0000000000
C 1.8228880000 0.0153180000 -0.0000000000
H -0.8043140000 -2.1438350000 0.0000000000
H 1.6711120000 -2.1361160000 -0.0000000000
O 3.1855650000 0.0882070000 -0.0000000000
H 3.5540780000 -0.8012010000 -0.0000010000
H -0.8259560000 2.1426280000 0.0000000000
H 1.6656880000 2.1515440000 -0.0000000000
Cl -2.7156650000 -0.0102260000 0.0000000000
