20
0 1
S 0.3744600000 -1.4861660000 -0.3223610000
P 1.3589410000 0.3074910000 0.1069950000
O 1.0121490000 0.9320620000 1.3920280000
C -1.1723210000 -1.2995950000 0.6887140000
C -2.4122150000 -0.9125150000 -0.1207760000
H -0.9424080000 -0.5930370000 1.4856400000
C -2.4302270000 0.5139350000 -0.6875380000
H -3.2778630000 -1.0462100000 0.5421810000
H -2.5383570000 -1.6304520000 -0.9377730000
C -2.4784030000 1.6154660000 0.3780020000
H -3.3064280000 0.6044460000 -1.3384860000
H -1.5580050000 0.6598320000 -1.3326670000
H -3.3481190000 1.4937480000 1.0321810000
H -2.5551470000 2.6011980000 -0.0893380000
H -1.5831490000 1.6208380000 1.0044140000
H -1.3037200000 -2.2840130000 1.1413780000
O 1.1284630000 1.2221950000 -1.1874180000
H 1.3453340000 2.1476870000 -1.0121910000
O 2.9082760000 -0.0727370000 -0.0981060000
H 3.2602660000 -0.5636510000 0.6550670000
