14
0 1
Si -1.0737270000 1.1575350000 -0.5171010000
Si 1.0536790000 1.1150890000 0.5041970000
C -1.9081420000 -0.4999890000 0.0400050000
O -1.2364480000 -1.5032260000 0.1581870000
H -1.0158100000 1.0889980000 -1.9952660000
H -1.9577040000 2.2867910000 -0.1282570000
O -3.2287090000 -0.5717760000 0.3053720000
C 2.0916980000 -0.4264390000 -0.0525290000
H 0.8297590000 1.0451530000 1.9676990000
H 1.8216570000 2.3268530000 0.1606570000
O 3.2774510000 -0.2694840000 -0.1956700000
O 1.5121430000 -1.6185910000 -0.2486040000
H -3.6395770000 0.2930220000 0.1814600000
H 0.5455120000 -1.5943780000 -0.0847720000
