17
0 1
P -1.8776500000 -0.1088210000 -0.3335950000
C -0.3739200000 0.0078640000 0.7937540000
C 0.5640140000 1.2122800000 0.5711430000
C 0.5752050000 -1.1954390000 0.5939850000
C 1.5088840000 -0.7788800000 -0.5658480000
H 0.0520630000 -2.1356500000 0.4022340000
H 1.1586060000 -1.3347710000 1.5105700000
C 1.5308870000 0.7776930000 -0.5574420000
H 1.1222660000 -1.1489420000 -1.5187700000
H 2.5065960000 -1.2068600000 -0.4474340000
H 2.5351280000 1.1715430000 -0.3870020000
H 1.2018570000 1.1700120000 -1.5222710000
H 1.1289360000 1.3869310000 1.4945200000
H 0.0322700000 2.1377710000 0.3416780000
H -0.7945560000 0.0093140000 1.8040540000
H -1.2474960000 0.2311400000 -1.5602420000
H -2.3613390000 1.2107180000 -0.1269620000
