14
0 1
C -1.4759610000 -0.4762700000 0.0263710000
P -0.9454260000 1.3051130000 -0.2406400000
C 0.8441400000 0.7743840000 0.0400670000
N 0.9489880000 -0.5912460000 -0.0670370000
C -0.2573110000 -1.3964970000 -0.1154040000
H -0.2849080000 -2.1311360000 0.6985420000
H -0.3412630000 -1.9487730000 -1.0614880000
O -2.5843670000 -0.8855820000 0.2413600000
C 2.2470670000 -1.2474720000 -0.0031970000
H 3.0129700000 -0.4752940000 0.0265990000
H 2.3990400000 -1.8816930000 -0.8817800000
H 2.3260710000 -1.8674500000 0.8963000000
O 1.7699170000 1.5365900000 0.2125810000
H -1.2054490000 1.7334410000 1.0821370000
