13
0 2
S 2.0710740000 -0.0070520000 -0.1822520000
C 0.3744270000 -0.0014360000 0.4742240000
C -0.4549820000 1.2143300000 0.1284570000
C -1.7031110000 0.8825390000 -0.1923080000
C -1.9460990000 -0.6065430000 -0.1038380000
C -0.5189090000 -1.1949860000 0.0331880000
H -2.4790300000 -1.0016080000 -0.9739490000
H -2.5654460000 -0.8384390000 0.7719980000
H -0.4591150000 -2.0300500000 0.7323530000
H -0.1731580000 -1.5570270000 -0.9368510000
H 0.5632690000 -0.0284790000 1.5606010000
H -0.0478160000 2.2162640000 0.1743420000
H -2.4838430000 1.5887530000 -0.4508010000
