7
0 1
C -1.6645010000 0.6902820000 -0.0045940000
S -0.4857130000 -0.7070720000 0.0143390000
H -2.6572220000 0.2349210000 -0.0488170000
H -1.5112810000 1.3105950000 -0.8864180000
H -1.5800400000 1.2868300000 0.9031360000
S 1.3705440000 0.2440830000 -0.0876040000
H 1.5782440000 0.4337970000 1.2318950000
