18
0 1
C -0.2916940000 -0.1457990000 -0.4351870000
N -1.4577860000 -1.0333840000 0.0189580000
N -0.6432320000 1.2881060000 -0.0560620000
O -1.3530160000 -2.2023940000 -0.3041220000
O -2.3694130000 -0.5247350000 0.6355330000
O -0.3349740000 1.6666150000 1.0578830000
O -1.2074800000 1.9384100000 -0.9170490000
H -0.3136780000 -0.1774350000 -1.5221580000
C 1.0168090000 -0.6150330000 0.1707880000
C 2.2354770000 0.1368550000 -0.3818920000
H 1.0975020000 -1.6817280000 -0.0513210000
H 0.9559230000 -0.4984870000 1.2555800000
C 3.5456330000 -0.3941530000 0.2060230000
H 2.1429080000 1.2033500000 -0.1558790000
H 2.2569490000 0.0438520000 -1.4737460000
H 3.5630630000 -0.2833210000 1.2937930000
H 4.4019920000 0.1505290000 -0.1975990000
H 3.6841750000 -1.4542090000 -0.0252920000
