10
0 2
Si -1.8154640000 -0.1768710000 0.0000710000
O -0.1987220000 -0.6831190000 -0.0000680000
H -2.1131040000 0.5960550000 1.2304820000
H -2.1133300000 0.5959930000 -1.2303240000
C 0.8539650000 0.1857060000 -0.0001950000
O 0.6991250000 1.3778360000 0.0000240000
C 2.1743850000 -0.5356420000 0.0000260000
H 2.2404950000 -1.1800190000 0.8795170000
H 2.9883460000 0.1860390000 0.0001660000
H 2.2407700000 -1.1799990000 -0.8794560000
