21
0 1
C 3.4639380000 0.6700400000 -0.4416720000
C 2.9430590000 -0.4354180000 -1.1115910000
C 1.6707000000 -0.9066260000 -0.7979380000
C 2.7204000000 1.3088080000 0.5511210000
C 1.4495620000 0.8482670000 0.8788920000
C 0.9384000000 -0.2529740000 0.1915690000
H 4.4551030000 1.0322790000 -0.6890970000
H 3.5277950000 -0.9363440000 -1.8739630000
H 1.2551980000 -1.7746930000 -1.2926110000
H 3.1323640000 2.1628490000 1.0753430000
H 0.8606160000 1.3246200000 1.6515470000
S -0.6854010000 -0.8533530000 0.6085620000
O -0.8640070000 -2.1564400000 0.0231460000
O -0.9427620000 -0.5723360000 1.9900990000
N -1.7430970000 0.1684460000 -0.3049270000
N -1.8815630000 1.4312160000 0.1854270000
O -2.5542340000 2.1538440000 -0.5131160000
C -2.2991450000 -0.2089440000 -1.6064700000
H -2.1152760000 -1.2679840000 -1.7581140000
H -1.8389250000 0.3859090000 -2.3990590000
H -3.3713040000 -0.0100920000 -1.5990410000
