8
0 1
C 1.0804540000 -0.0208380000 0.0000610000
O 2.1454750000 -0.5687480000 -0.0000410000
O 0.9468490000 1.3104730000 -0.0000110000
H 0.0046230000 1.5420460000 -0.0000010000
C -0.1903010000 -0.8761990000 0.0000170000
Cl -1.7476240000 0.0538800000 -0.0000040000
H -0.1872780000 -1.5048020000 0.8878160000
H -0.1872410000 -1.5047790000 -0.8877990000
