16
0 1
H 0.0000730000 4.3115690000 1.0304220000
H 0.0000730000 4.3115690000 -1.0304220000
B -0.0000110000 3.7131150000 0.0000000000
C -0.0000040000 2.1691290000 0.0000000000
C -0.0000020000 1.4411730000 1.2079500000
C -0.0000000000 0.0522950000 1.2201620000
C -0.0000000000 -0.6150830000 -0.0000000000
C -0.0000020000 1.4411730000 -1.2079500000
H -0.0000030000 1.9793630000 -2.1489890000
C -0.0000000000 0.0522950000 -1.2201620000
H -0.0000000000 -0.5177580000 -2.1385490000
N -0.0000000000 -2.1018860000 -0.0000000000
O -0.0000020000 -2.6652890000 1.0846640000
O -0.0000020000 -2.6652890000 -1.0846640000
H -0.0000030000 1.9793630000 2.1489890000
H -0.0000000000 -0.5177580000 2.1385490000
