13
0 1
P 0.4837000000 -0.0092300000 -0.5768930000
B -1.1552460000 -0.8082000000 -0.0064840000
O -2.2470410000 -0.0196280000 0.1786560000
C 1.7582200000 -0.9486870000 0.4055820000
H 1.6937040000 -2.0078220000 0.1461070000
H 1.6327110000 -0.8430170000 1.4859710000
C 0.4660910000 1.6615930000 0.2414400000
H 0.4517120000 1.5959900000 1.3321340000
H -0.4295080000 2.1935160000 -0.0851820000
H 1.3392950000 2.2389610000 -0.0690280000
H 2.7564810000 -0.6000530000 0.1329030000
H -3.0520150000 -0.5162200000 0.3557910000
H -1.2411810000 -2.0023100000 0.0757390000
