22
0 1
C -0.2606730000 -0.1558120000 0.2440150000
C 0.6678710000 -1.3410990000 -0.0785530000
C 2.1102640000 -1.0727730000 0.3810860000
C 2.6573760000 0.2390800000 -0.1988870000
C 1.7318910000 1.4218430000 0.1191810000
C 0.2931970000 1.1524740000 -0.3470590000
N -2.8816080000 0.7210400000 0.4289700000
H 0.6627640000 -1.5182130000 -1.1623400000
H 0.2922990000 -2.2578370000 0.3887030000
H 2.7538080000 -1.9115570000 0.0958320000
H 2.1335360000 -1.0206130000 1.4772580000
H 2.7515810000 0.1393520000 -1.2880510000
H 3.6650880000 0.4300450000 0.1843830000
H 2.1106540000 2.3364440000 -0.3489330000
H 1.7339440000 1.6025390000 1.2020280000
H 0.2753930000 1.0825970000 -1.4430060000
H -0.3622160000 1.9847530000 -0.0763300000
P -1.9857710000 -0.4899730000 -0.3936760000
H -0.3165500000 -0.0462860000 1.3360450000
H -2.2028470000 -1.6448240000 0.4180670000
H -3.0046630000 0.6612480000 1.4313080000
H -3.7345280000 1.0024010000 -0.0313150000
