12
0 1
S -0.7007520000 -0.9861960000 -0.9210650000
P -2.1079310000 0.2848940000 0.0845300000
O -1.9933270000 1.6903270000 -0.2925630000
O -2.0639040000 -0.0972960000 1.6265870000
O 0.6568100000 0.0852530000 -1.0040090000
C 1.5162180000 0.0968660000 0.0492770000
F 0.8659140000 0.4187810000 1.2126430000
Cl 2.7147680000 1.3612790000 -0.2867750000
Cl 2.3278870000 -1.4862000000 0.3432690000
H -1.2334450000 0.1666380000 2.0445860000
O -3.4374660000 -0.5166320000 -0.2864980000
H -3.8481380000 -0.1806850000 -1.0934840000
