8
0 1
C 1.1780020000 -0.0000150000 0.0000500000
C -0.3868510000 0.0000070000 0.0000010000
F 1.6424570000 0.8932670000 -0.8771920000
F 1.6424060000 -1.2063840000 -0.3349420000
F 1.6423860000 0.3130350000 1.2123100000
Cl -0.9625780000 1.6275540000 0.4512140000
Cl -0.9626870000 -1.2045520000 1.1838120000
Cl -0.9625080000 -0.4229560000 -1.6351370000
