12
0 1
N -0.3219840000 0.0000000000 -0.0000450000
C 0.4242480000 1.1943850000 -0.0001640000
C 1.8869650000 0.7689300000 -0.0000250000
C 1.8869650000 -0.7689300000 -0.0000180000
H 2.3678610000 1.2025450000 0.8786800000
H 2.3679820000 1.2025420000 -0.8786630000
C 0.4242480000 -1.1943850000 -0.0000580000
H 2.3678880000 -1.2025340000 0.8786760000
H 2.3679540000 -1.2025540000 -0.8786660000
O -0.0324070000 -2.3013250000 0.0000170000
O -0.0324070000 2.3013250000 0.0000200000
Cl -2.0255200000 0.0000000000 0.0000930000
