11
0 1
F -2.4050250000 -0.8400290000 0.1353470000
F 1.9750600000 -0.0375020000 1.2800770000
O 0.1295670000 -2.0877980000 -1.0836270000
O -1.6357200000 1.9573640000 -0.4785640000
P 1.8282240000 0.0233970000 -0.3662700000
P -1.0076240000 -0.3812840000 0.8055310000
C 0.2620870000 -1.1203290000 -0.3976920000
C 0.7456620000 1.5416450000 -0.4272680000
H 1.1456460000 2.2479320000 0.3096880000
H 0.8080830000 2.0277420000 -1.4057330000
C -0.7317190000 1.2509980000 -0.1307320000
