8
0 1
C -0.7295610000 -0.5273800000 -0.2307810000
C 0.5771370000 0.1462100000 0.3115480000
Cl -2.1816690000 0.3940760000 0.2351230000
F -0.8212030000 -1.7613880000 0.2854390000
F -0.6692400000 -0.6283990000 -1.5632210000
Cl 0.7977700000 1.7663600000 -0.3889920000
Cl 1.9773520000 -0.8929580000 -0.0711000000
F 0.4710910000 0.2497750000 1.6488770000
