7
0 2
Cl -2.3680160000 -0.0163750000 -0.0541810000
B -0.8400020000 -0.5514170000 -0.5916440000
S 0.7842320000 0.0711050000 0.1081230000
O 0.8298940000 1.5015110000 0.2075460000
O 1.0368950000 -0.8070490000 1.2309510000
O 1.8527010000 -0.3053490000 -1.0561360000
H 2.1526600000 -1.2151180000 -0.9095540000
