15
0 1
Cl -2.6951360000 -0.5675240000 0.0214390000
O 2.2611390000 -2.0812920000 0.0287340000
N -1.4957890000 0.7204090000 -0.0135630000
N 0.1990610000 -1.0278990000 -0.0254290000
N 0.8005470000 1.1117130000 -0.1312030000
C -0.2845740000 0.2749110000 -0.0520240000
C 1.5817190000 -1.0891590000 0.0068910000
C 2.0389650000 0.3700360000 0.0179750000
C 0.7093220000 2.5467640000 0.0550770000
H -0.4061250000 -1.8354180000 -0.0226370000
H 2.5510540000 0.5816990000 0.9661930000
H 2.7419490000 0.5541620000 -0.8002750000
H 0.8834990000 2.8350090000 1.0995030000
H 1.4464890000 3.0456470000 -0.5780910000
H -0.2879890000 2.8722730000 -0.2351760000
