19
0 1
C 2.5927940000 -0.8936540000 -0.0000290000
C 2.3027870000 0.4705070000 -0.0000500000
C 0.9905060000 0.9429320000 -0.0000090000
C 1.5520990000 -1.8152110000 0.0000100000
C 0.2307280000 -1.3720590000 0.0000530000
C -0.0459590000 -0.0055310000 0.0000570000
H 1.7593850000 -2.8792110000 0.0000130000
H -0.5812690000 -2.0914190000 0.0000830000
O -1.3282640000 0.4834220000 0.0000840000
Si -2.7928850000 -0.2984170000 -0.0000490000
H 3.6229060000 -1.2302050000 -0.0000660000
C 0.6694490000 2.4140290000 0.0000080000
H 1.5833550000 3.0106720000 -0.0002510000
H 0.0766830000 2.6897280000 0.8769730000
H 0.0762190000 2.6896630000 -0.8766590000
H 3.1142500000 1.1911540000 -0.0001020000
H -3.7972810000 0.7795510000 -0.0000380000
H -2.9411370000 -1.1478260000 1.2039670000
H -2.9410370000 -1.1477160000 -1.2041480000
