22
0 1
C 1.8035880000 0.0670220000 0.3788070000
O 0.7757490000 0.1948280000 -0.6432380000
S -0.5468840000 -0.8465790000 -0.5085920000
C -1.7392990000 0.2174370000 0.4028820000
C 2.6001780000 1.3629170000 0.3120570000
C -2.9831250000 -0.6430220000 0.6459890000
H 1.9577690000 2.2233770000 0.5090860000
H 3.0420390000 1.4836800000 -0.6802920000
H -2.7514640000 -1.5366130000 1.2305500000
H -3.4351330000 -0.9576400000 -0.2993850000
C 2.6558500000 -1.1711320000 0.1290450000
H 2.0411570000 -2.0736570000 0.1498760000
H 3.4274890000 -1.2685680000 0.8981810000
H 3.1435030000 -1.1036350000 -0.8471800000
C -2.0422240000 1.5021730000 -0.3642260000
H -1.1199310000 2.0286090000 -0.6142890000
H -2.6683220000 2.1683340000 0.2394180000
H -2.5700330000 1.2801530000 -1.2955730000
H -1.2780790000 0.4585940000 1.3654680000
H -3.7310590000 -0.0639430000 1.1946930000
H 1.3103350000 -0.0171070000 1.3547090000
H 3.4060810000 1.3526900000 1.0507880000
