12
0 1
C 1.4887240000 0.2876980000 -0.0000000000
B -1.0294170000 -0.0308530000 0.0000010000
O -1.4193970000 1.2867050000 0.0000020000
O -1.9967440000 -1.0014790000 -0.0000020000
C 2.7448160000 -0.1671510000 -0.0000020000
H 3.5768350000 0.5226410000 -0.0000020000
H 2.9718020000 -1.2278120000 -0.0000020000
H -2.8789230000 -0.6200130000 -0.0000010000
H -0.7041180000 1.9257460000 0.0000040000
N 0.3308740000 -0.4765510000 0.0000000000
H 1.3176710000 1.3614610000 0.0000000000
H 0.4755900000 -1.4769900000 -0.0000010000
