21
0 1
C 2.0436690000 0.6698530000 0.7726730000
C 1.6003220000 -0.7855610000 0.6034460000
S 0.4037050000 -1.0904700000 -0.7837850000
H 1.1592590000 -1.1720750000 1.5241090000
H 2.4593290000 -1.4187040000 0.3678160000
Si -1.5049490000 -0.9310730000 0.2124580000
C -2.0579290000 0.8166020000 0.6547880000
C 2.8274330000 1.2289660000 -0.4165110000
H 2.6675120000 0.7179660000 1.6745310000
H 1.1694460000 1.2984420000 0.9696210000
H 3.7312490000 0.6402300000 -0.6029240000
H 3.1350700000 2.2612320000 -0.2311510000
H 2.2252790000 1.2150540000 -1.3278790000
C -2.2231550000 1.7724670000 -0.5379370000
H -1.3530140000 1.2330890000 1.3835120000
H -3.0103170000 0.7110750000 1.1914430000
H -1.2822700000 1.8998980000 -1.0793560000
H -2.5560030000 2.7619630000 -0.2117050000
H -2.9621040000 1.3956080000 -1.2509330000
H -1.4582720000 -1.7459790000 1.4531740000
H -2.4571830000 -1.5292270000 -0.7528590000
