19
0 1
C 1.9177270000 -0.6235200000 0.0000010000
C 1.3417160000 0.6383930000 -0.0000270000
C -0.0483580000 0.7958940000 -0.0000370000
C 1.0886990000 -1.7482420000 0.0000200000
C -0.2946590000 -1.6119730000 0.0000110000
C -0.8804180000 -0.3411130000 -0.0000160000
H 1.5438070000 -2.7313590000 0.0000410000
H -0.9063200000 -2.5034870000 0.0000260000
O -2.2254780000 -0.1187040000 -0.0000260000
C -3.1052020000 -1.2356870000 -0.0000060000
H -4.1108300000 -0.8192670000 -0.0000180000
H -2.9688260000 -1.8525230000 0.8947500000
H -2.9688200000 -1.8525590000 -0.8947370000
H 1.9441560000 1.5418660000 -0.0000440000
O 3.2693600000 -0.8354120000 0.0000100000
H 3.7219340000 0.0143250000 -0.0000050000
C -0.6064170000 2.1673160000 -0.0000730000
O 0.0778730000 3.1697160000 0.0000990000
H -1.7076690000 2.2318070000 0.0000930000
