19
0 1
C 0.3138560000 -0.2780390000 0.4993500000
C 1.1606750000 -1.2613080000 -0.0220110000
C 2.4344040000 -0.9358620000 -0.4841830000
C 2.8836060000 0.3806720000 -0.4273490000
C 2.0499690000 1.3685840000 0.0957060000
C 0.7770710000 1.0415550000 0.5522840000
B -2.8767330000 1.3247580000 -0.5749340000
H 3.0763710000 -1.7129770000 -0.8839810000
H 3.8751200000 0.6356010000 -0.7836580000
H 2.3933110000 2.3957450000 0.1501780000
H 0.1342480000 1.8180700000 0.9544070000
H 0.8222450000 -2.2919760000 -0.0627460000
C -1.0694160000 -0.6374450000 0.9831050000
P -2.4437100000 -0.4419740000 -0.2722800000
H -2.8625070000 2.0987070000 0.3296870000
H -3.3525910000 1.6243620000 -1.6227360000
H -1.3663330000 -0.0114150000 1.8289140000
H -1.0936210000 -1.6726010000 1.3305090000
H -1.8879200000 -0.9466230000 -1.4631120000
