13
0 1
C -1.5873290000 0.3361840000 -0.0000000000
C -1.2177450000 -1.0044850000 -0.0000000000
C 0.1288510000 -1.3382460000 -0.0000000000
C -0.6181350000 1.3375230000 0.0000000000
C 0.7266600000 0.9991120000 0.0000000000
C 1.1243940000 -0.3494890000 0.0000000000
F -2.8728240000 0.6667900000 -0.0000000000
F -2.1555920000 -1.9520890000 -0.0000000000
F 0.4589400000 -2.6249150000 -0.0000000000
F -0.9961600000 2.6165430000 -0.0000000000
F 1.6135820000 1.9865070000 0.0000000000
N 2.4840090000 -0.8545460000 -0.0000000000
O 3.3550290000 -0.0171610000 0.0000010000
