15
0 1
F 2.0183420000 -1.0157550000 0.3096160000
O 1.6590340000 0.0079710000 -0.6572230000
C 0.9417120000 0.9918800000 0.0808320000
C -0.4089770000 0.5184710000 0.6023800000
H 1.5826690000 1.3792000000 0.8792950000
C -1.3642590000 0.0401730000 -0.4959570000
H -0.8581210000 1.3504320000 1.1589500000
H -0.2378840000 -0.2837880000 1.3265310000
C -2.7009040000 -0.4616190000 0.0560990000
H -0.8769710000 -0.7560420000 -1.0662640000
H -1.5433770000 0.8602630000 -1.2024380000
H -2.5538890000 -1.3040110000 0.7388640000
H -3.3602030000 -0.7980010000 -0.7482580000
H -3.2249430000 0.3248190000 0.6085430000
H 0.8299330000 1.7717260000 -0.6841040000
