23
0 1
C -1.8975610000 0.2184720000 -0.1334680000
O -1.2550790000 1.0763750000 -0.6608430000
S -1.3101550000 -1.5205540000 0.0445250000
S 0.5730800000 -1.4170420000 -0.8001740000
C 1.5347120000 -0.5649160000 0.5113170000
O 1.0501330000 -0.1767080000 1.5329900000
C -3.2591690000 0.4048910000 0.5128700000
C 2.9933330000 -0.3985580000 0.1200490000
C 3.4861300000 1.0402470000 0.3523740000
H 3.1477850000 -0.7039600000 -0.9195620000
H 3.5561550000 -1.0974430000 0.7495590000
C 2.8479210000 2.0584220000 -0.5968980000
H 4.5743800000 1.0512600000 0.2367780000
H 3.2732780000 1.3098100000 1.3901760000
H 1.7596700000 2.0754750000 -0.4948030000
H 3.0803460000 1.8263830000 -1.6408420000
H 3.2178170000 3.0656920000 -0.3901110000
C -3.9919440000 1.6455240000 0.0009730000
H -3.0722380000 0.4813920000 1.5908960000
H -3.8535840000 -0.5032520000 0.3720320000
H -3.3817950000 2.5386410000 0.1398870000
H -4.9323870000 1.7779730000 0.5399890000
H -4.2171870000 1.5577420000 -1.0640780000
