14
0 1
Cl 2.0868480000 1.5050960000 0.0000250000
Cl 2.0868480000 -1.5050960000 0.0000070000
B 1.1505900000 0.0000000000 -0.0000240000
C -0.3917080000 0.0000000000 -0.0000150000
C -1.1200350000 1.2067340000 -0.0000060000
H -0.5871870000 2.1498610000 -0.0000010000
C -2.5093430000 1.2077790000 -0.0000000000
H -3.0502630000 2.1471410000 0.0000080000
C -3.2062350000 0.0000000000 -0.0000050000
C -1.1200350000 -1.2067340000 -0.0000210000
H -0.5871870000 -2.1498610000 -0.0000280000
C -2.5093430000 -1.2077790000 -0.0000150000
H -3.0502630000 -2.1471410000 -0.0000180000
H -4.2906880000 0.0000000000 -0.0000000000
