17
0 1
Si -0.0362050000 -0.0013920000 0.2454780000
N 1.6909360000 -0.5304280000 0.6322620000
N -0.5882630000 -1.1289840000 -1.1105960000
N 0.1495910000 1.6462370000 -0.5685470000
C -1.1357170000 -0.0003420000 1.7219840000
O 1.2151430000 2.1336400000 -0.8889740000
O -0.5834700000 -0.8194080000 -2.2859830000
O 2.3152080000 -1.3429950000 -0.0216310000
O -0.9248650000 -2.2198300000 -0.6421620000
O 2.0958850000 0.0762470000 1.6274400000
O -0.9661450000 2.1459270000 -0.7433310000
C -2.6467810000 0.0378790000 1.4187360000
H -0.8277100000 0.8578530000 2.3288300000
H -0.8705530000 -0.8953250000 2.2951790000
H -2.9175220000 0.9346100000 0.8605160000
H -3.2064820000 0.0373500000 2.3559070000
H -2.9557950000 -0.8366530000 0.8438390000
