9
0 1
Si 0.0000000000 0.0000000000 0.0000000000
O -1.1400620000 0.7893860000 0.8650560000
H -1.8807790000 0.2697800000 1.1859610000
O 1.1400600000 -0.7893860000 0.8650570000
O 0.7893870000 1.1400610000 -0.8650550000
O -0.7893850000 -1.1400610000 -0.8650570000
H 1.8807770000 -0.2697800000 1.1859640000
H 0.2697810000 1.8807780000 -1.1859620000
H -0.2697790000 -1.8807780000 -1.1859630000
