17
0 1
Si 0.0000000000 -0.3065410000 -0.5105940000
S -1.6845840000 -1.1636650000 0.5157730000
S 1.6845850000 -1.1636640000 0.5157730000
S -0.0000000000 1.8460320000 -0.5695370000
H 0.0000000000 -0.6441790000 -1.9527080000
C -3.0610390000 -0.4940870000 -0.5104190000
H -3.0289800000 0.5939330000 -0.5424340000
H -3.9821700000 -0.8154790000 -0.0249540000
H -3.0263120000 -0.9026730000 -1.5196900000
C 3.0610390000 -0.4940870000 -0.5104190000
H 3.9821700000 -0.8154790000 -0.0249540000
H 3.0289800000 0.5939340000 -0.5424340000
H 3.0263120000 -0.9026730000 -1.5196900000
C -0.0000000000 2.2782000000 1.2198360000
H 0.8920780000 1.8891620000 1.7081770000
H -0.8920790000 1.8891620000 1.7081770000
H -0.0000000000 3.3664620000 1.2727080000
