20
0 1
C 2.1171590000 0.8084780000 -0.1502920000
O 1.3056840000 1.5229620000 -0.6578250000
S 1.8947070000 -1.0089930000 0.0383280000
S 0.0245350000 -1.2925870000 -0.7937200000
C -1.0805480000 -0.6434750000 0.5225740000
O -0.6769000000 -0.1677420000 1.5420780000
C 3.4208210000 1.2676880000 0.4629100000
H 3.2193350000 1.5812930000 1.4913160000
H 3.7901740000 2.1282100000 -0.0961230000
H 4.1738360000 0.4784650000 0.4840910000
C -2.5446910000 -0.7643480000 0.1361700000
C -3.3007470000 0.5588140000 0.3494290000
H -2.9633900000 -1.5469870000 0.7792080000
H -2.6407150000 -1.1091290000 -0.8981190000
C -2.8668870000 1.6654710000 -0.6160760000
H -3.1426450000 0.8785970000 1.3827670000
H -4.3713890000 0.3617570000 0.2369280000
H -1.8016130000 1.8900660000 -0.5174770000
H -3.4211660000 2.5871710000 -0.4227050000
H -3.0512100000 1.3783010000 -1.6559220000
