11
0 1
Si -0.0221370000 0.0138330000 -0.0059970000
C 1.7888180000 -0.3397120000 -0.1765300000
H 1.9661280000 -1.4065090000 -0.3344560000
H 2.3393740000 -0.0289060000 0.7160310000
H 2.2039560000 0.2053970000 -1.0281030000
O -0.7422470000 -0.9025910000 1.1655540000
O -0.8766230000 -0.3518250000 -1.3602230000
O -0.1342270000 1.6233000000 0.2980920000
H -0.4299450000 -0.8163870000 2.0687340000
H -1.4819440000 -1.0940960000 -1.2975020000
H -0.9957830000 2.0340450000 0.1910550000
