19
0 1
C -1.9442440000 -1.4805260000 0.2066420000
C -0.5537440000 -1.4504600000 0.1835380000
C -2.6513180000 -0.2920210000 0.0523370000
C -1.9616790000 0.9054000000 -0.1145780000
C -0.5638070000 0.9498090000 -0.1188130000
C 0.1654120000 -0.2519150000 0.0291820000
H -2.4692220000 -2.4199260000 0.3385280000
H -0.0084950000 -2.3820710000 0.3074720000
B 1.7425710000 -0.3355530000 0.0327720000
O 2.4008540000 -1.3383930000 -0.6231920000
O 2.5511980000 0.5448330000 0.6951560000
H -2.5199410000 1.8269630000 -0.2470740000
H -3.7357840000 -0.2953860000 0.0564340000
C 0.1194800000 2.2918910000 -0.2863250000
H -0.5336460000 2.9972430000 -0.8043080000
H 1.0501230000 2.2181730000 -0.8510130000
H 0.3590080000 2.7435640000 0.6846200000
H 2.0598320000 1.1868340000 1.2114670000
H 1.8082510000 -1.8822180000 -1.1475950000
