11
0 1
C 0.5637470000 0.1067400000 0.0000510000
O 1.6779840000 -0.6671650000 -0.0000230000
O 0.6126630000 1.3098970000 -0.0000080000
H 2.4330600000 -0.0602900000 -0.0000600000
C -0.6912000000 -0.7360420000 0.0000160000
C -1.9710100000 0.0946060000 -0.0000130000
H -0.6398080000 -1.3974230000 0.8713250000
H -0.6397700000 -1.3974240000 -0.8712910000
H -2.0199010000 0.7388970000 0.8796760000
H -2.8481210000 -0.5563440000 -0.0000330000
H -2.0198610000 0.7388980000 -0.8797030000
