18
0 1
F 2.7845750000 1.7798180000 0.4485560000
N 3.9190890000 -0.6038550000 -0.1736790000
H 4.3141700000 -1.5236930000 -0.0607860000
H 4.4451060000 0.1369270000 0.2631060000
B -1.8302240000 0.0238490000 -0.0159800000
S -2.7067110000 1.5893460000 -0.3401020000
C 1.9479540000 0.7388200000 0.1761270000
S -2.8553570000 -1.4251820000 0.4147870000
C 2.5467540000 -0.4982940000 -0.1073110000
C 1.6779880000 -1.5701470000 -0.3627820000
H 2.0978790000 -2.5431990000 -0.5953360000
C 0.3023220000 -1.3956910000 -0.3262100000
H -0.3302110000 -2.2502000000 -0.5375960000
C -0.2913020000 -0.1476990000 -0.0520590000
C 0.5875900000 0.9265280000 0.2013280000
H 0.2207040000 1.9147470000 0.4522710000
H -1.6609810000 2.3078610000 -0.7837970000
H -4.0650930000 -0.9007990000 0.1512720000
