7
0 1
P 1.1062130000 -0.0186380000 -0.0040180000
N -0.5018780000 0.5930310000 0.1381860000
O -1.5503730000 -0.3578220000 -0.1340430000
H -2.0130610000 -0.4075210000 0.7104330000
H 0.9798070000 -0.9697040000 -1.0583810000
H 1.0149690000 -0.9996140000 1.0126380000
H -0.6587720000 1.3677790000 -0.4993670000
