14
0 1
C -1.5789370000 -1.6341850000 -0.1915850000
Si -0.2840100000 -0.4187160000 0.3878340000
C 1.3952100000 -0.7282290000 -0.3869460000
H -2.5501340000 -1.4121000000 0.2570040000
H -1.2970460000 -2.6527210000 0.0945430000
H -1.6909000000 -1.6028250000 -1.2785230000
C 2.5150380000 0.2267720000 0.0605120000
H 2.6693500000 0.1833390000 1.1423750000
H 2.2795650000 1.2620410000 -0.1972620000
H 3.4649130000 -0.0267220000 -0.4180990000
Cl -0.9203720000 1.5178670000 -0.1273190000
H 1.2787010000 -0.6942520000 -1.4765120000
H 1.6645030000 -1.7654140000 -0.1454050000
H -0.1843400000 -0.4192190000 1.8647340000
