8
0 1
C -0.3240800000 0.1668550000 0.0000000000
C 0.9039230000 1.0364140000 -0.0000000000
F -0.3240800000 -0.6488740000 1.1044650000
F -0.3240800000 -0.6488740000 -1.1044650000
H -1.2680520000 0.7184960000 0.0000000000
H 1.7925480000 0.4027620000 -0.0000000000
H 0.9149480000 1.6694340000 0.8890540000
H 0.9149480000 1.6694340000 -0.8890540000
