7
0 2
Si 1.5349200000 -0.9426560000 -0.0334550000
C -0.0342120000 -0.0035740000 0.5075810000
Cl -1.5108720000 -0.8583090000 -0.0789770000
Cl 0.0153540000 1.7046430000 -0.1073890000
H -0.1405910000 0.0786840000 1.5854380000
H 1.5618010000 -1.0102930000 -1.5114960000
H 2.7189990000 -0.2374550000 0.5171640000
