20
0 1
C -1.3788660000 -1.3657910000 -0.0032880000
C 0.0071770000 -1.4881220000 0.0112370000
C 0.8353380000 -0.3611750000 0.0147820000
C -1.9820550000 -0.1075750000 -0.0085130000
C -1.1498340000 1.0153830000 -0.0087030000
C 0.2427170000 0.9184640000 -0.0040310000
H -1.9945180000 -2.2595770000 -0.0069270000
H 0.4483950000 -2.4789410000 0.0213900000
P 2.6694010000 -0.5370660000 -0.1072550000
H -1.6007310000 2.0039560000 -0.0190140000
C 1.0853600000 2.1708890000 -0.0008680000
H 0.4701270000 3.0597010000 -0.1508760000
H 1.8427360000 2.1480210000 -0.7914670000
H 1.6176480000 2.2925620000 0.9490840000
C -3.4839890000 0.0430080000 0.0097720000
H -3.9788040000 -0.8583570000 -0.3581850000
H -3.8084090000 0.8838810000 -0.6085160000
H -3.8488040000 0.2268420000 1.0263490000
H 2.7355720000 -1.8880570000 0.3137730000
H 3.0206850000 -0.0245330000 1.1708780000
