16
0 1
N -0.7060680000 1.6673890000 -0.2189490000
Si -0.4646150000 0.0478960000 0.3434990000
H -0.1822050000 2.4293770000 0.1859990000
H -0.9182120000 1.8545780000 -1.1886560000
C 1.1044090000 -0.7980110000 -0.2868720000
C 2.4077760000 -0.0407290000 0.0197480000
H 1.0074860000 -0.9505900000 -1.3699130000
H 1.1446910000 -1.8040630000 0.1510840000
H 2.3988580000 0.9591080000 -0.4249100000
H 3.2861070000 -0.5643400000 -0.3695250000
C -1.9581030000 -0.9811380000 -0.1406800000
H -2.8707910000 -0.5765050000 0.3037980000
H -1.8472950000 -2.0180930000 0.1903360000
H -2.0927550000 -0.9970920000 -1.2274410000
H 2.5524700000 0.0829770000 1.0975850000
H -0.3557580000 0.1616410000 1.8221280000
