9
0 2
Si -1.1713780000 -0.1355310000 -0.1158150000
C 0.5571530000 0.6261930000 0.0985650000
N 1.5954100000 -0.3880580000 -0.1307020000
H 0.6034150000 1.1284810000 1.0816770000
H 0.6678960000 1.4163090000 -0.6513130000
H 1.5735360000 -1.0894280000 0.6022480000
H 2.5198990000 0.0308030000 -0.1086800000
H -2.2194150000 0.7932210000 0.3920440000
H -1.2568230000 -1.4227020000 0.6289650000
