10
0 1
Si 0.0851600000 0.8526350000 0.0836800000
N 1.7594310000 0.0821110000 -0.2592030000
O 1.8644780000 -1.1049390000 -0.0328340000
C -1.2727630000 -0.3548410000 0.4507410000
C -2.3587400000 -0.4783240000 -0.3185200000
H -1.1780240000 -1.0033200000 1.3196910000
H -2.5119660000 0.1344510000 -1.2026430000
H -3.1437290000 -1.1971230000 -0.0995080000
H -0.2105730000 1.6490030000 -1.1272060000
H 0.4092370000 1.7438210000 1.2219120000
