16
0 1
F 3.5804060000 -0.1542620000 0.0000160000
F -0.4794240000 2.1633850000 -0.0000080000
O -2.8913000000 0.8367260000 -0.0000080000
C -0.5703310000 -0.2132580000 -0.0000110000
C 1.5481920000 1.0252660000 0.0000030000
H 2.0727390000 1.9710960000 0.0000070000
C 0.1605220000 0.9785040000 -0.0000050000
C 0.1876110000 -1.3990250000 -0.0000060000
H -0.3437350000 -2.3425940000 -0.0000110000
C 2.2322270000 -0.1788200000 0.0000070000
C 1.5767380000 -1.4019990000 0.0000030000
H 2.1499660000 -2.3200080000 0.0000060000
B -2.1335750000 -0.2997030000 -0.0000250000
H -3.8414410000 0.6913110000 0.0000100000
O -2.6664730000 -1.5663970000 0.0000160000
H -3.6260780000 -1.6100390000 0.0000360000
