8
0 1
B 2.3960530000 -0.6358170000 0.0000930000
B 1.3254140000 0.6374490000 -0.0016680000
N -0.0836490000 0.4827880000 0.0021040000
C -1.1860910000 0.0148240000 0.0004620000
O -2.2862060000 -0.3790100000 -0.0007730000
H 2.8181180000 -1.1073350000 -1.0139390000
H 2.8223710000 -1.0998840000 1.0158150000
H 1.7439120000 1.7626760000 -0.0053170000
