7
0 1
S -1.0706030000 -0.0876310000 -0.0949050000
O 0.4406230000 0.6287440000 0.0915750000
H -1.2259520000 -0.5699370000 1.1600360000
C 1.5497250000 -0.2695390000 -0.0324970000
H 1.5773080000 -0.9798690000 0.8013580000
H 2.4408510000 0.3598010000 -0.0038250000
H 1.5140980000 -0.8206290000 -0.9767030000
