29
0 1
N 1.0924060000 0.5223960000 -0.4307960000
N 1.5375590000 1.7263860000 -0.8691330000
O 2.7381770000 1.7983390000 -1.0455410000
C 1.9941080000 -0.6421900000 -0.3942800000
O 1.8979370000 -1.5027090000 -1.2431490000
N 2.8545930000 -0.6534710000 0.6489890000
C -0.3168490000 0.3800010000 -0.2303320000
C -1.0323080000 1.4396890000 0.3431960000
C -2.3975030000 1.3308370000 0.5406120000
C -3.0740540000 0.1541350000 0.1936970000
C -2.3584720000 -0.9061270000 -0.3667280000
C -0.9865950000 -0.7875940000 -0.5880820000
H -2.9644180000 2.1431990000 0.9781620000
H -2.8529530000 -1.8244420000 -0.6522360000
H -0.4408980000 -1.5959430000 -1.0542990000
C 3.8749010000 -1.6972320000 0.6904760000
H 3.8608280000 -2.1916420000 1.6657390000
H 4.8671400000 -1.2633430000 0.5284490000
H 3.6676480000 -2.4234760000 -0.0903810000
C 2.9902990000 0.4149660000 1.6312130000
H 3.2003120000 -0.0312310000 2.6059680000
H 2.0669210000 0.9832080000 1.7076280000
H 3.8052440000 1.0937680000 1.3639280000
O -4.4125060000 0.1443180000 0.4434370000
H -0.5132750000 2.3479660000 0.6191620000
C -5.1562470000 -1.0192950000 0.1072090000
H -6.1856940000 -0.8047440000 0.3886580000
H -4.8043180000 -1.8953720000 0.6632740000
H -5.1109950000 -1.2278630000 -0.9673390000
