13
0 1
C -0.3895630000 -0.0000010000 -0.3994000000
C 1.0492650000 -0.0004150000 -0.1225310000
C 2.2270010000 -0.0004600000 0.1188140000
H 3.2685690000 0.0011930000 0.3274070000
C -1.0586640000 1.2744370000 0.1526230000
H -0.9639820000 1.3168420000 1.2406920000
H -2.1219870000 1.2819850000 -0.1021340000
H -0.5962980000 2.1714570000 -0.2641280000
C -1.0593880000 -1.2740220000 0.1527050000
H -0.5132260000 0.0000010000 -1.4898440000
H -0.9647270000 -1.3164120000 1.2407770000
H -0.5975360000 -2.1713300000 -0.2639920000
H -2.1227160000 -1.2809740000 -0.1020500000
