8
0 1
Cl 1.8553210000 -0.3276480000 -0.0440030000
O 0.4265080000 0.5604140000 0.6154870000
O -0.4636440000 0.8864370000 -0.3719790000
O -1.2938460000 -0.2485410000 -0.6733890000
C -2.2407200000 -0.4232860000 0.3853090000
H -2.8391980000 -1.2752530000 0.0592140000
H -2.8713600000 0.4625080000 0.4921450000
H -1.7377300000 -0.6640090000 1.3238860000
