13
0 2
C 0.0000100000 1.4833720000 0.1027280000
C 0.0000010000 0.0596370000 -0.3476780000
C 1.2711550000 -0.6807490000 0.1017580000
H 2.1717130000 -0.1679770000 -0.2479810000
H 1.2914710000 -1.7010910000 -0.2917570000
H 1.3203430000 -0.7376520000 1.1936680000
C -1.2711640000 -0.6807330000 0.1017510000
H 0.0000050000 0.0530210000 -1.4539120000
H -1.2914890000 -1.7010760000 -0.2917610000
H -2.1717140000 -0.1679510000 -0.2479940000
H -1.3203590000 -0.7376330000 1.1936620000
H 0.9280650000 2.0356010000 0.1973200000
H -0.9280430000 2.0355910000 0.1974010000
