19
0 2
Cl -2.5965360000 -1.5818770000 -0.8487220000
Cl -2.2957900000 0.3561750000 1.2760110000
O 1.2326300000 3.0035860000 -0.2678430000
C 1.2717920000 1.9059650000 -1.2047800000
H 2.2905130000 1.5868460000 -1.4365070000
H 0.7424160000 2.1456570000 -2.1351630000
C 0.4723750000 0.9974900000 -0.2344500000
N -1.4029980000 -0.6195180000 0.0649930000
C -0.7155580000 0.2868270000 -0.8844770000
H -0.3376500000 -0.3809930000 -1.6629230000
H -1.4049410000 1.0049030000 -1.3398000000
C 0.2399200000 2.3239730000 0.5338470000
H -0.7571030000 2.7521870000 0.3915920000
H 0.4918690000 2.3307070000 1.5975690000
C 1.3870490000 0.0357710000 0.5355980000
N 1.9249110000 -0.9343150000 -0.4033980000
Cl 2.9204530000 -2.0698140000 0.4128060000
H 0.8418840000 -0.4695460000 1.3417560000
H 2.2069560000 0.6019880000 0.9990040000
