9
0 1
O -0.6600400000 -1.2708620000 0.0000000000
N -1.0149780000 0.0915660000 0.0000000000
C -0.0000000000 0.8613780000 0.0000000000
C 1.4499410000 0.4865650000 0.0000000000
H -0.2677470000 1.9157380000 0.0000000000
H 1.5799250000 -0.5929690000 0.0000000000
H 1.9469650000 0.9078220000 0.8797880000
H 1.9469650000 0.9078220000 -0.8797880000
H -1.5205870000 -1.7001360000 0.0000000000
