26
0 1
C 0.9273120000 0.0000220000 0.0000100000
C 0.4364890000 -0.0895820000 1.4498410000
C -1.1102660000 -0.0899310000 1.4506930000
H 0.8209000000 0.7586090000 2.0236860000
H 0.8213850000 -1.0016580000 1.9150760000
C -1.6226660000 -1.3021940000 0.6478570000
C -1.1101700000 -1.2115450000 -0.8032660000
H -2.7180260000 -1.3239220000 0.6587890000
H -1.2798600000 -2.2340110000 1.1114470000
C 0.4366130000 -1.2107880000 -0.8025700000
H 0.8212020000 -2.1318280000 -0.3550660000
H 0.8214160000 -1.1575000000 -1.8250990000
C 0.4366550000 1.3004840000 -0.6472520000
C -1.1101180000 1.3014680000 -0.6475750000
H 0.8212200000 1.3733920000 -1.6686690000
H 0.8214810000 2.1593800000 -0.0898640000
C -1.6227370000 1.2121440000 0.8036070000
H -1.4624820000 -0.1539370000 2.4852640000
H -1.2800280000 2.0795750000 1.3787970000
H -2.7181040000 1.2323690000 0.8168890000
C -1.6226500000 0.0899710000 -1.4514760000
H -1.4623310000 2.2294890000 -1.1093200000
H -2.7180200000 0.0915180000 -1.4756040000
H -1.2800050000 0.1542620000 -2.4902980000
H -1.4623760000 -2.0754390000 -1.3761000000
Cl 2.7778150000 -0.0000350000 0.0000500000
