8
0 1
Si -1.4199340000 1.1542720000 -0.0000000000
Si 0.6295940000 0.0015010000 -0.0000000000
Cl 2.1548320000 1.3992440000 -0.0000010000
H -1.5152050000 1.9807230000 -1.2184680000
Cl 0.8264290000 -1.1839620000 -1.6747530000
Cl -2.9785650000 -0.2161600000 0.0000010000
Cl 0.8264300000 -1.1839610000 1.6747540000
H -1.5152050000 1.9807240000 1.2184660000
