16
0 1
C 0.8727110000 -2.1949930000 0.0000000000
C -0.4940390000 -1.9050390000 0.0000000000
C -0.9112810000 -0.5900490000 0.0000000000
C 1.7918250000 -1.1545390000 0.0000000000
C 1.3627470000 0.1755480000 0.0000000000
C 0.0000000000 0.4779400000 0.0000000000
H 1.2050850000 -3.2257080000 0.0000000000
H -1.2445230000 -2.6861270000 0.0000000000
F -2.2297600000 -0.3065950000 0.0000000000
H 2.8546840000 -1.3658250000 0.0000000000
H 2.0948020000 0.9717850000 0.0000000000
O -0.5391350000 1.7240410000 0.0000000000
C 0.3453990000 2.8353370000 0.0000000000
H -0.2905640000 3.7187130000 0.0000000000
H 0.9786310000 2.8444810000 -0.8942880000
H 0.9786310000 2.8444810000 0.8942880000
