12
0 1
S 0.5167930000 -1.1001700000 -0.0445890000
N 1.5788800000 0.4130340000 -0.0120920000
O 1.0624430000 1.4824210000 -0.2304640000
O 2.7377280000 0.1671400000 0.2455540000
O -0.9221310000 -0.4852740000 -0.4866870000
C -1.7679210000 0.0720780000 0.5729880000
C -3.0657360000 0.4904290000 -0.0820880000
H -1.2441830000 0.9218440000 1.0135250000
H -1.9187330000 -0.6968520000 1.3353500000
H -2.8810170000 1.2399390000 -0.8536310000
H -3.7326140000 0.9228970000 0.6685840000
H -3.5666780000 -0.3656830000 -0.5383770000
