16
0 1
Si -1.7875620000 -0.4463020000 -0.1693180000
C -0.0128250000 0.2482010000 0.0737340000
O 0.8169270000 -0.8644290000 -0.2453990000
O 0.1724360000 0.6458300000 1.4354630000
C 2.2301210000 -0.6590460000 -0.1733740000
H 2.5991280000 -0.0792860000 -1.0262760000
H 2.6816350000 -1.6505100000 -0.2002240000
H 2.5100020000 -0.1573220000 0.7569350000
C 0.2830590000 1.4903100000 -0.7608180000
H 0.2547170000 1.2502420000 -1.8258980000
H 1.2671300000 1.8950760000 -0.5114140000
H -0.4555720000 2.2665030000 -0.5532440000
H 0.0002270000 -0.1250840000 1.9891850000
H -1.9964310000 -1.4928430000 0.8604900000
H -1.9772910000 -1.0247310000 -1.5186060000
H -2.7747060000 0.6381890000 0.0417460000
