7
0 2
Si -1.7865270000 -0.0696720000 -0.0347270000
Si 0.5142110000 0.0257500000 0.3644960000
F 1.1805830000 -1.2986230000 -0.2481440000
F 1.2233360000 1.2654760000 -0.3683150000
H 0.8799530000 0.1005990000 1.7896870000
H -2.1604190000 -0.2230660000 -1.4603760000
H -2.5423900000 1.0356900000 0.6020660000
