9
0 2
Si -0.0654880000 -0.0137600000 -0.4025010000
O -0.5308850000 1.4584310000 0.1877500000
C 1.7161640000 -0.2157920000 0.1633990000
H 2.1228900000 -1.1804210000 -0.1489930000
H 1.7539540000 -0.1519700000 1.2561170000
H 2.3408940000 0.5765460000 -0.2553980000
H -1.4721440000 1.6506920000 0.2037620000
O -1.0823540000 -1.1394270000 0.2863610000
H -1.2198280000 -1.9594900000 -0.1937640000
