9
0 1
Si 1.4606390000 -0.2153370000 -0.0011250000
C -0.1498300000 0.8043050000 -0.1541890000
N -1.2439040000 0.0801370000 0.5143620000
O -2.0088060000 -0.4651300000 -0.2418230000
H 2.5397040000 0.5711410000 -0.6376870000
H 1.2890500000 -1.5052350000 -0.7013850000
H 1.7781860000 -0.4445380000 1.4233830000
H -0.3865950000 0.9914620000 -1.2068620000
H 0.0074660000 1.7361410000 0.3974880000
