19
0 1
S -2.4217480000 -0.4778040000 -0.1000500000
C -1.0829150000 -0.2623520000 1.1460370000
C 0.3073030000 -0.1426760000 0.5746350000
C 0.9298490000 -1.2368780000 -0.0386330000
C 2.2151860000 -1.1246960000 -0.5564920000
C 1.0036360000 1.0668690000 0.6478070000
C 2.2919730000 1.1836530000 0.1261900000
C 2.9015230000 0.0877800000 -0.4765650000
H 3.9035680000 0.1745170000 -0.8812020000
H 2.6844540000 -1.9836120000 -1.0233610000
H 0.3962980000 -2.1783780000 -0.1147100000
H 0.5370620000 1.9234730000 1.1240790000
H 2.8168630000 2.1301290000 0.1936500000
C -2.2805280000 1.0866180000 -1.0200020000
H -2.4914660000 1.9428260000 -0.3763250000
H -3.0291260000 1.0471340000 -1.8121930000
H -1.2920330000 1.1890320000 -1.4688470000
H -1.1718490000 -1.1528070000 1.7731760000
H -1.3219620000 0.6026440000 1.7686810000
