12
0 2
Cl 2.0067030000 -0.0872290000 0.0313820000
B 0.4034290000 -0.7830570000 0.0560670000
C -0.9295890000 -0.0661370000 -0.3208340000
C -2.1879010000 -0.8318260000 0.1339910000
H -2.1598980000 -1.8758750000 -0.1853830000
H -3.0924990000 -0.3726240000 -0.2762230000
H -2.2765670000 -0.8221320000 1.2242520000
C -0.9925250000 1.4264390000 0.0733230000
H -0.8931080000 -0.1156890000 -1.4260950000
H -1.0018330000 1.5424290000 1.1610200000
H -1.9070390000 1.8846880000 -0.3147500000
H -0.1400670000 1.9865350000 -0.3155340000
