18
0 1
Si -1.4690960000 0.0146190000 -0.0102450000
O -2.1760720000 -0.1150270000 1.4656600000
O -1.9008480000 1.4707340000 -0.6252010000
O -2.0437860000 -1.2853750000 -0.8476200000
C 0.3889100000 0.0089850000 -0.0104420000
C 1.1196860000 1.2079560000 0.0016750000
C 2.5120340000 1.1979430000 0.0281290000
H 0.5879650000 2.1522570000 -0.0203720000
H -2.7915240000 1.7793290000 -0.4413510000
H -2.4380040000 -0.9914570000 1.7559070000
H -1.6871370000 -1.4386530000 -1.7259270000
C 1.1028910000 -1.2006950000 -0.0014410000
C 2.4952780000 -1.2143050000 0.0264160000
C 3.2016340000 -0.0131370000 0.0427280000
H 3.0596560000 2.1340460000 0.0353540000
H 3.0285350000 -2.1586860000 0.0336710000
H 4.2859590000 -0.0210800000 0.0634860000
H 0.5649540000 -2.1435650000 -0.0224420000
