12
0 2
C -2.2706730000 -0.1000750000 0.0000230000
C -0.7844970000 -0.4653090000 -0.0000020000
H -2.5369260000 0.4881620000 0.8835480000
H -2.8941740000 -0.9979690000 0.0000070000
H -2.5369450000 0.4882080000 -0.8834650000
C 0.1227130000 0.7734210000 0.0000200000
H -0.5467680000 -1.0780740000 -0.8745470000
H -0.5467490000 -1.0781190000 0.8745050000
C 1.6114650000 0.4690040000 -0.0000050000
H -0.0614090000 1.4129240000 0.8713430000
H -0.0614280000 1.4129690000 -0.8712660000
O 2.1387930000 -0.5887930000 -0.0000420000
