14
0 1
C -1.6306000000 -1.1966580000 0.0002910000
C -0.2354740000 -1.2056290000 -0.0015500000
C 0.4882950000 -0.0082430000 -0.0012120000
C -2.3183080000 0.0125380000 0.0011710000
C -1.6080340000 1.2136830000 0.0004430000
C -0.2169750000 1.2034890000 -0.0005050000
H -2.1757370000 -2.1339370000 0.0003160000
H 0.2955770000 -2.1514960000 -0.0037060000
H 0.3244150000 2.1430030000 -0.0006220000
H -3.4024960000 0.0227470000 0.0019850000
H -2.1400090000 2.1587090000 0.0007420000
P 2.3362130000 -0.1200130000 -0.0028730000
H 2.5903150000 0.7915320000 1.0559380000
H 2.5913090000 0.8545420000 -1.0033930000
