22
0 1
C 1.6620050000 -0.1043940000 0.3203610000
O 0.5401140000 0.4896670000 -0.3525940000
O -0.5401140000 -0.4896660000 -0.3525940000
C -1.6620060000 0.1043940000 0.3203610000
C 2.6580180000 1.0401820000 0.4743310000
C -2.6580180000 -1.0401830000 0.4743300000
H 2.2255390000 1.8578560000 1.0542290000
H 2.9493510000 1.4261620000 -0.5058360000
H -2.2255380000 -1.8578570000 1.0542280000
H -2.9493510000 -1.4261630000 -0.5058360000
C 2.2192770000 -1.2858070000 -0.4667860000
H 1.4491250000 -2.0445290000 -0.6085260000
H 3.0591780000 -1.7395940000 0.0674670000
H 2.5677390000 -0.9560380000 -1.4493940000
C -2.2192780000 1.2858060000 -0.4667860000
H -1.4491270000 2.0445300000 -0.6085260000
H -3.0591800000 1.7395930000 0.0674670000
H -2.5677400000 0.9560380000 -1.4493940000
H -1.3255670000 0.4408390000 1.3094640000
H -3.5563080000 -0.6862130000 0.9859190000
H 1.3255670000 -0.4408390000 1.3094640000
H 3.5563080000 0.6862110000 0.9859190000
