14
0 1
Si -0.0251550000 0.2720080000 0.6673000000
O 0.0699020000 1.5507460000 -0.3859370000
H 0.9408420000 1.6392700000 -0.7905190000
C 1.2663740000 -0.9776160000 0.0719780000
O 2.3697130000 -0.1653500000 -0.3832340000
H 0.8471070000 -1.5761810000 -0.7473710000
H 1.5754140000 -1.6633650000 0.8720060000
H 3.0484760000 -0.7395060000 -0.7501300000
C -1.7847980000 -0.3675680000 0.4600470000
O -2.0571970000 -0.5503580000 -0.9401450000
H -2.5171730000 0.3059570000 0.9288630000
H -1.9147870000 -1.3444010000 0.9354230000
H -1.8302260000 0.2795150000 -1.3756160000
H 0.2537190000 0.6813990000 2.0675300000
