19
0 2
C -2.3547370000 1.0459940000 0.2477580000
C -2.0675590000 -0.3455510000 -0.3238190000
H -1.5699540000 1.7564230000 -0.0258310000
H -2.4066520000 1.0172340000 1.3409570000
H -3.3069300000 1.4381610000 -0.1201110000
C -0.7330000000 -0.9431760000 0.1543200000
H -2.0636710000 -0.2999140000 -1.4195640000
H -2.8804550000 -1.0269590000 -0.0504200000
C 0.4774350000 -0.2123870000 -0.3256320000
H -0.6862600000 -1.9975090000 -0.1753070000
H -0.7253790000 -0.9909830000 1.2528570000
C 1.8147540000 -0.3898660000 0.3135430000
H 0.4376870000 0.2513840000 -1.3094670000
C 2.8524960000 0.6544360000 -0.1160590000
H 2.2101670000 -1.3969270000 0.0859840000
H 1.7032960000 -0.3755550000 1.4066510000
H 3.0097770000 0.6275530000 -1.1985060000
H 3.8179350000 0.4767640000 0.3649440000
H 2.5241030000 1.6636270000 0.1471510000
