13
0 2
C -0.9474020000 0.2217980000 -0.3758860000
C 0.3476380000 -0.4958770000 -0.0335600000
S 1.9043080000 0.3417780000 -0.0479580000
O 0.4431930000 -1.6754210000 0.2334490000
C -1.0092180000 1.6236320000 0.2474440000
H -1.0301840000 1.5662130000 1.3387860000
H -1.9139400000 2.1377810000 -0.0852130000
H -0.1542360000 2.2392550000 -0.0432660000
C -2.1593130000 -0.6444590000 -0.0165670000
H -0.9075010000 0.3407050000 -1.4680840000
H -2.2404710000 -0.7702670000 1.0661880000
H -2.0815780000 -1.6370320000 -0.4618120000
H -3.0767860000 -0.1722960000 -0.3754450000
