8
0 1
P 0.2189440000 0.1126450000 -0.8136220000
N -1.0950600000 -0.7960290000 -0.1081970000
O -1.1177300000 -0.8511170000 1.2949670000
O -2.2640850000 -0.1099720000 -0.5556890000
Cl 0.3181620000 1.8514000000 0.3609440000
Cl 1.7688690000 -1.0173570000 0.0210070000
H -2.8086040000 -0.8160810000 -0.9264610000
H -1.2351250000 -1.7914130000 1.4807840000
