7
0 1
Cl 2.2023980000 -0.4070110000 -0.0195690000
S 0.7644310000 1.0677340000 0.0832420000
S -1.0258500000 -0.0605160000 -0.1285590000
O -2.0121310000 0.9733860000 -0.0651290000
O -0.9167390000 -1.0133190000 -1.1939330000
O -1.1295100000 -0.8868230000 1.2540650000
H -0.7910200000 -1.7822510000 1.0977230000
