18
0 1
B -0.4077310000 -0.7109920000 1.1575680000
B 0.4076320000 0.7091790000 1.1586750000
C 1.7036090000 1.0524270000 0.3003960000
N 2.3618030000 0.2769840000 -0.4759780000
C -1.7042660000 -1.0525820000 0.2994650000
N -2.3621140000 -0.2760500000 -0.4761170000
C 1.9598230000 -1.0835580000 -0.7026060000
H 2.7711730000 -1.7514620000 -0.3972430000
H 1.8043730000 -1.2346100000 -1.7752500000
H 1.0380460000 -1.3964360000 -0.1705370000
C -1.9590750000 1.0843040000 -0.7019960000
H -1.8041430000 1.2359970000 -1.7746260000
H -1.0367030000 1.3959880000 -0.1702590000
H -2.7696510000 1.7527020000 -0.3956600000
H 2.1233800000 2.0603900000 0.3782230000
H -2.1246590000 -2.0603470000 0.3764940000
H 0.0755220000 1.5728360000 1.9218310000
H -0.0752100000 -1.5760810000 1.9189210000
