10
0 1
C 1.7464410000 -0.1673040000 0.0020940000
S 0.5027030000 1.1719730000 0.0231250000
F 2.8604360000 0.4212780000 -0.4689070000
F 1.4301740000 -1.1889950000 -0.7946010000
F 1.9897600000 -0.6574930000 1.2179310000
O -0.7591950000 0.3351150000 0.7997400000
C -1.7950910000 -0.1068930000 0.0092220000
F -2.6789250000 -0.6651080000 0.8276860000
F -1.4036730000 -1.0102780000 -0.8937490000
F -2.3841930000 0.9020060000 -0.6478970000
