9
0 1
Si -0.2823700000 -0.0980860000 0.5456000000
C 1.5645200000 -0.0056760000 0.0617860000
Cl -1.1511280000 -1.6880210000 -0.4382660000
Cl -1.2962110000 1.6493830000 0.0368750000
N 2.0031220000 0.9366980000 -0.8069410000
H 1.3826580000 1.6291630000 -1.1940750000
H 2.9835900000 0.9610040000 -1.0520760000
O 2.2740770000 -0.8466850000 0.5899730000
H -0.4098830000 -0.3094600000 1.9894860000
