22
0 1
C 0.3054160000 -0.1433030000 0.2691920000
C -0.2489580000 1.1658760000 -0.3266820000
C -1.7019320000 1.4219940000 0.1064080000
C -2.6129840000 0.2329810000 -0.2248220000
C -2.0691270000 -1.0676150000 0.3804120000
C -0.6195550000 -1.3350080000 -0.0540470000
B 3.2809520000 0.6980980000 0.4517490000
H -0.2023500000 1.1068420000 -1.4216980000
H 0.3875820000 2.0052920000 -0.0335290000
H -2.0735260000 2.3332880000 -0.3732390000
H -1.7275810000 1.6070660000 1.1879810000
H -2.6831970000 0.1231690000 -1.3148040000
H -3.6292090000 0.4223940000 0.1349930000
H -2.7015970000 -1.9147370000 0.0963470000
H -2.1098030000 -1.0020470000 1.4753370000
H -0.2410830000 -2.2422600000 0.4256120000
H -0.5979250000 -1.5224850000 -1.1357520000
P 2.0666720000 -0.5097530000 -0.2233420000
H 0.3596680000 -0.0351980000 1.3606270000
H 4.3036970000 0.8711720000 -0.1303890000
H 3.1213220000 1.1430560000 1.5447390000
H 2.0720060000 -0.3893020000 -1.6276020000
