21
0 1
C 3.1092360000 0.4041850000 0.8185380000
C 1.9431670000 1.0944010000 0.4928400000
C 3.2759570000 -0.9118940000 0.3954560000
C 2.2757990000 -1.5356840000 -0.3506410000
C 1.1083360000 -0.8499550000 -0.6733650000
C 0.9286700000 0.4762070000 -0.2502140000
H 1.8218380000 2.1251260000 0.8104150000
H 3.8862400000 0.8946430000 1.3943110000
H 4.1841270000 -1.4505320000 0.6428400000
H 2.4056660000 -2.5603100000 -0.6813510000
H 0.3213510000 -1.3402250000 -1.2318060000
P -0.5546970000 1.4890840000 -0.6566800000
N -1.8489020000 0.7891820000 0.2889660000
C -2.4374300000 -0.4489350000 0.1093220000
O -2.0798620000 -1.2279290000 -0.7518440000
C -3.5562530000 -0.7771660000 1.0855640000
H -4.1381630000 0.1017090000 1.3724050000
H -3.1233430000 -1.2113990000 1.9917120000
H -4.2108140000 -1.5181050000 0.6296950000
H -2.2366420000 1.3766290000 1.0122620000
H -0.8934890000 0.8383980000 -1.8632930000
