14
0 1
Si 0.4855830000 -0.0000030000 0.9630980000
C -1.2891190000 -0.0000010000 0.3336020000
Cl 1.8396520000 0.0000020000 -0.6338480000
C -1.6351990000 1.2748090000 -0.4578440000
H -1.4413470000 2.1828300000 0.1200090000
H -2.6943100000 1.2779460000 -0.7354480000
H -1.0525590000 1.3361840000 -1.3813700000
C -1.6352000000 -1.2748060000 -0.4578500000
H -2.6943100000 -1.2779410000 -0.7354550000
H -1.4413480000 -2.1828300000 0.1199980000
H -1.0525600000 -1.3361770000 -1.3813770000
H -1.8853660000 -0.0000030000 1.2593700000
H 0.7733330000 -1.2117310000 1.7594300000
H 0.7733330000 1.2117200000 1.7594370000
