12
0 1
Cl -0.1727630000 -1.5039290000 -1.5167570000
Cl -0.1727630000 -1.5039290000 1.5167570000
B 0.0221880000 -0.6112020000 -0.0000000000
P 0.6505750000 1.1753730000 0.0000000000
C -0.1727630000 1.9748990000 1.4588510000
C -0.1727630000 1.9748990000 -1.4588510000
H 0.1391170000 1.4628760000 2.3699530000
H -1.2624880000 1.9549870000 1.3942380000
H 0.1621260000 3.0122430000 1.5227700000
H 0.1391170000 1.4628760000 -2.3699530000
H 0.1621260000 3.0122430000 -1.5227700000
H -1.2624880000 1.9549870000 -1.3942380000
