16
0 1
C 2.1554800000 1.3013220000 -0.2489450000
C 1.7682250000 0.1176780000 0.6326550000
H 2.7234560000 0.9700690000 -1.1208390000
H 2.7641330000 2.0174420000 0.3121100000
H 1.2613260000 1.8158700000 -0.6052820000
C -2.8411690000 0.7015910000 -0.0561190000
C -1.6880510000 -0.1275780000 0.4778840000
H -3.6501080000 0.7374440000 0.6789220000
H -3.2296620000 0.2668330000 -0.9794230000
H -2.5189600000 1.7238260000 -0.2661870000
S 0.6852180000 -1.0929740000 -0.1939930000
H 1.2965230000 0.4444010000 1.5630570000
H 2.6417660000 -0.4834630000 0.9105160000
O -0.6661710000 -0.1390910000 -0.5395990000
H -2.0015680000 -1.1547550000 0.6921010000
H -1.2879380000 0.3045640000 1.4028470000
