11
0 2
C 0.8487270000 1.5520150000 -0.1057720000
S 0.4672100000 -0.1300950000 0.0558950000
O 1.3820760000 -0.8879830000 -0.7501360000
O -0.9410620000 -0.2410680000 -0.7298270000
O 0.2613450000 -0.4212840000 1.4502460000
C -2.1530610000 0.1001170000 -0.0151150000
H -2.9626250000 -0.2130360000 -0.6709450000
H -2.2084790000 1.1778140000 0.1549610000
H -2.1976600000 -0.4361330000 0.9316510000
H 0.7996130000 1.9974290000 -1.0894340000
H 1.3009230000 2.0453390000 0.7425060000
