22
0 1
C 2.3821850000 -1.2364200000 0.7151970000
C 1.3207290000 -0.4390630000 1.1451890000
C 3.1179320000 -0.8766850000 -0.4111270000
C 2.7847490000 0.2886290000 -1.0998820000
C 1.7234630000 1.0812250000 -0.6719990000
C 0.9704460000 0.7339960000 0.4589170000
H 0.7688100000 -0.7182550000 2.0374490000
B -2.2560370000 -0.7519670000 -0.2106690000
O -3.5750960000 -1.0695090000 -0.3378400000
O -1.3514490000 -1.7758100000 -0.1861030000
H 2.6370760000 -2.1337950000 1.2682350000
H 3.3542580000 0.5825120000 -1.9747180000
H 3.9445040000 -1.4930390000 -0.7449630000
H 1.4750980000 1.9852660000 -1.2183400000
C -0.2025460000 1.5723860000 0.8998790000
H -0.4324840000 -1.4986270000 -0.0914810000
H -3.7088360000 -2.0239160000 -0.4119580000
Si -1.7911500000 1.2334610000 -0.1136610000
H 0.0304740000 2.6377970000 0.8083000000
H -0.4259890000 1.3880780000 1.9551000000
H -1.5584170000 1.7560010000 -1.4877410000
H -2.8976090000 2.0274880000 0.4792170000
