10
0 2
C 0.0000000000 0.5333700000 -0.0452910000
C 1.2978650000 -0.1977590000 0.0027800000
H 1.3069880000 -1.0491920000 -0.6895610000
H 1.4995640000 -0.6179610000 1.0031880000
H 2.1424800000 0.4496460000 -0.2459340000
C -1.2978650000 -0.1977590000 0.0027800000
H 0.0000000000 1.6079100000 0.1029950000
H -1.3069900000 -1.0491890000 -0.6895650000
H -2.1424800000 0.4496480000 -0.2459290000
H -1.4995620000 -0.6179660000 1.0031870000
