13
0 1
Si -0.7670480000 0.0127170000 0.3231670000
P 1.4901560000 -0.0619780000 0.0517150000
O 2.1317480000 -1.0891970000 0.8891630000
O 1.8832780000 1.4699010000 0.3079480000
C -1.2338410000 0.0395850000 2.1155250000
H -0.7738810000 -0.8086490000 2.6280950000
H -2.3190540000 -0.0197330000 2.2263470000
H -0.8815720000 0.9648030000 2.5784950000
Cl -1.5773030000 1.6334000000 -0.6729210000
Cl -1.4605290000 -1.7229680000 -0.5801590000
O 1.8118000000 -0.2079550000 -1.5250900000
H 1.9592700000 -1.1300260000 -1.7721480000
H 2.8331430000 1.6483940000 0.2721920000
