24
0 1
C -2.1281840000 -1.1209120000 -0.0509280000
C -0.7423780000 -0.9923840000 -0.0528890000
C -2.9384190000 0.0063000000 0.0012190000
C -2.3759120000 1.2765100000 0.0523670000
C -0.9937630000 1.4066740000 0.0502780000
C -0.1579030000 0.2807670000 -0.0019640000
H -0.1093350000 -1.8645450000 -0.0879410000
H -2.5756010000 -2.1058780000 -0.0896860000
H -3.0092430000 2.1531370000 0.0932130000
H -0.5584790000 2.4007510000 0.0896420000
N 1.2297390000 0.5119900000 -0.0067810000
C 2.2519460000 -0.4311920000 -0.0110150000
O 2.0463980000 -1.6344960000 0.0263620000
N 3.5252700000 0.1052480000 -0.0729510000
H 1.4879300000 1.4829370000 0.0388130000
C 4.6564320000 -0.7983380000 0.0980160000
H 4.2896140000 -1.8195910000 0.0454230000
H 5.1464560000 -0.6454910000 1.0674380000
H 5.3920640000 -0.6376080000 -0.6958110000
C 3.8070770000 1.5316910000 -0.0715660000
H 3.6289810000 2.0047320000 0.9044580000
H 3.2254810000 2.0570200000 -0.8354690000
H 4.8576390000 1.6785500000 -0.3223450000
Cl -4.6885370000 -0.1707890000 0.0034350000
