12
0 1
Si 1.9626760000 -0.1330360000 -0.2342520000
C 0.3442760000 -0.0650940000 0.7539080000
H 1.7293410000 -0.7514700000 -1.5579490000
H 2.9759640000 -0.9110090000 0.5170310000
H 2.4697890000 1.2474140000 -0.4356760000
N -0.6665690000 0.7786290000 0.1191110000
C -1.8895980000 0.3072230000 -0.2546270000
O -2.2722140000 -0.8349420000 -0.1150320000
H -2.5116820000 1.0978360000 -0.7153610000
H -0.4678360000 1.7548090000 -0.0371670000
H 0.5318580000 0.2668890000 1.7818000000
H -0.0892660000 -1.0656000000 0.8176450000
