16
0 1
C -1.5659370000 -0.9016950000 0.0000000000
C -1.3110690000 0.4661300000 0.0000000000
C -0.4945030000 -1.7864840000 0.0000000000
C 0.8215970000 -1.3246590000 0.0000000000
C 1.0630500000 0.0405370000 0.0000000000
C -0.0000000000 0.9580240000 0.0000000000
H -2.1447620000 1.1600760000 0.0000000000
H -2.5808700000 -1.2771120000 0.0000000000
H 1.6412630000 -2.0314920000 0.0000000000
H 2.0797450000 0.4124800000 0.0000000000
C 0.2189070000 2.4061300000 0.0000000000
N 1.3941590000 2.9045780000 0.0000000000
H -0.6531610000 3.0624370000 0.0000000000
O 1.3533000000 4.2994120000 0.0000000000
H 2.2852490000 4.5406000000 0.0000000000
Cl -0.8003090000 -3.5142490000 0.0000000000
