14
0 1
S -0.1233510000 -1.5094470000 -0.1563670000
C -1.6900080000 -0.5784720000 0.0354100000
C -1.3598920000 0.7775960000 0.6413020000
H -2.3303790000 -1.1692360000 0.6955350000
H -2.1785420000 -0.4658440000 -0.9331340000
S 0.0115570000 1.4878330000 -0.3361090000
H -1.0742240000 0.6858720000 1.6905450000
H -2.1988460000 1.4729010000 0.5610950000
C 1.0072640000 -0.0603510000 -0.4225780000
C 2.1735850000 -0.0964580000 0.5618300000
H 1.3744230000 -0.1105310000 -1.4481710000
H 1.8216550000 0.0075930000 1.5894590000
H 2.8741380000 0.7154250000 0.3485650000
H 2.7147880000 -1.0442330000 0.4799230000
