9
0 1
C 0.4177460000 0.0168150000 0.0074960000
C -0.8979020000 0.7707200000 -0.0844470000
F 1.4567970000 0.8352470000 -0.2587160000
F 0.4488990000 -0.9930620000 -0.8994810000
F 0.6218820000 -0.5292790000 1.2166300000
O -2.0048130000 -0.0760200000 0.1095000000
H -0.9111180000 1.2824100000 -1.0550300000
H -0.9154160000 1.5210340000 0.7064860000
H -2.0022300000 -0.7366530000 -0.5916410000
