10
0 1
Si 1.0030260000 -0.5885000000 0.0906060000
O -0.5467890000 -0.2616250000 -0.5201510000
N -1.5631870000 0.1298230000 0.4432840000
O -2.5720760000 0.3615280000 -0.0833670000
C 2.0864270000 0.9249430000 -0.0234240000
H 2.1540110000 1.2855770000 -1.0530450000
H 3.0986410000 0.6875290000 0.3198070000
H 1.7004930000 1.7363060000 0.5995880000
H 1.5144830000 -1.6822020000 -0.7594740000
H 0.8646770000 -1.0458500000 1.4903330000
