14
0 1
O 0.1157000000 -0.6255660000 -0.2865180000
N 1.3749690000 -0.0632170000 0.0405820000
O 1.3952240000 0.8950100000 0.7778280000
O 2.2863660000 -0.6463080000 -0.4748360000
C -1.0538970000 0.0629070000 0.2698170000
C -1.3890120000 1.2897240000 -0.5670310000
H -0.5754210000 2.0154530000 -0.5439270000
H -2.2847560000 1.7748880000 -0.1702740000
H -1.5820680000 1.0028040000 -1.6036400000
C -2.1408600000 -1.0021150000 0.2655410000
H -0.8068010000 0.3525170000 1.2921670000
H -3.0572510000 -0.5893080000 0.6940970000
H -1.8385120000 -1.8669200000 0.8581640000
H -2.3556760000 -1.3351030000 -0.7524190000
