12
0 1
C 0.0000000000 1.1933210000 -0.9665000000
C 0.0000000000 -0.0000000000 -1.6715460000
C -0.0000000000 -1.1933210000 -0.9665000000
H 0.0000000000 -0.0000000000 -2.7528810000
F 0.0000000000 -2.3614390000 -1.6216910000
C -0.0000000000 1.2073790000 0.4238060000
F 0.0000000000 2.3614390000 -1.6216910000
C -0.0000000000 0.0000000000 1.1152690000
C -0.0000000000 -1.2073790000 0.4238060000
F -0.0000000000 -2.3604820000 1.0975420000
F 0.0000000000 2.3604820000 1.0975420000
F -0.0000000000 0.0000000000 2.4486170000
