12
0 1
Si -0.9461150000 -1.7621750000 -0.7100590000
Si 0.9461030000 -1.7621710000 0.7100620000
N 1.9475570000 -0.4089210000 0.3559880000
H 1.7370540000 -2.9931450000 0.4847270000
H 0.5431850000 -1.6826000000 2.1304180000
C 2.5998860000 0.5471430000 0.0666970000
S 3.4689520000 1.8078510000 -0.3116590000
N -1.9475720000 -0.4089250000 -0.3559890000
H -1.7370640000 -2.9931500000 -0.4847200000
H -0.5431970000 -1.6826080000 -2.1304150000
C -2.5999000000 0.5471390000 -0.0667010000
S -3.4689280000 1.8078730000 0.3116570000
