22
0 1
Si 1.3315970000 -0.1414790000 0.3722040000
O 1.0747360000 1.2132510000 -0.6194160000
O 0.4658590000 2.2510870000 0.2198880000
H 1.0935810000 2.9704510000 0.0696930000
C -0.2437220000 -0.7596410000 1.1811320000
C -1.3081050000 -1.4214620000 0.2790860000
H -0.6764000000 0.0747690000 1.7436530000
H 0.0814930000 -1.4817160000 1.9434010000
C -1.9589870000 -0.5027630000 -0.7690910000
H -2.0995290000 -1.8367790000 0.9159390000
H -0.8606050000 -2.2798560000 -0.2353820000
C -2.7490190000 0.6698710000 -0.1777360000
H -2.6302570000 -1.1146540000 -1.3826960000
H -1.1934070000 -0.1107640000 -1.4471030000
C 2.1066170000 -1.3622080000 -0.8137150000
H 1.4285710000 -1.6143010000 -1.6326850000
H 2.3613120000 -2.2872870000 -0.2870050000
H 3.0253050000 -0.9570700000 -1.2451370000
H -3.5014790000 0.3193930000 0.5370750000
H -3.2716660000 1.2204700000 -0.9648450000
H -2.0947150000 1.3798220000 0.3324380000
H 2.2899840000 0.2407370000 1.4399770000
