13
0 1
C 0.9055040000 -0.0175450000 -0.0114410000
Si -0.9524380000 -0.0051260000 0.4490660000
O 1.4272620000 1.2823880000 -0.1844640000
H 0.7347860000 1.8238840000 -0.5863240000
O -1.6966770000 -1.3537350000 -0.1054420000
H -1.2801150000 -1.7546010000 -0.8764020000
O 0.9812970000 -0.7834240000 -1.1841960000
H 1.9215310000 -0.9076590000 -1.3823240000
O -1.4355160000 1.3950090000 -0.2927170000
H -2.3552870000 1.6684230000 -0.2682720000
O 1.7245960000 -0.6376870000 0.9532740000
H 2.0821480000 0.0665240000 1.5061500000
H -1.2096460000 0.0600570000 1.8972570000
