30
0 2
C 0.1864950000 -1.3941590000 0.0729580000
O 1.3131330000 -1.3187110000 -0.6793720000
O -0.8360310000 -0.5861860000 -0.3674570000
H -0.0868960000 -2.4314560000 0.2799770000
C 1.8974820000 -0.0123860000 -0.8439640000
C -2.0261950000 -0.6712250000 0.4183680000
C -3.1176210000 0.1806420000 -0.2238170000
H -1.8169990000 -0.3281710000 1.4408410000
H -2.3487670000 -1.7206200000 0.4740280000
C -2.7186960000 1.6597450000 -0.2845020000
H -2.5873660000 2.0688520000 0.7234460000
H -3.4900910000 2.2505980000 -0.7862260000
H -1.7815170000 1.7913000000 -0.8275390000
C -4.4405550000 -0.0167440000 0.5279790000
H -3.2435640000 -0.1860010000 -1.2497850000
H -4.3566570000 0.3160050000 1.5681160000
H -4.7490070000 -1.0663460000 0.5353660000
H -5.2412390000 0.5621010000 0.0607750000
C 2.7208110000 0.4186850000 0.3737100000
H 1.1110420000 0.7143300000 -1.0597810000
H 2.5369970000 -0.1031770000 -1.7258950000
C 3.2325110000 1.8506240000 0.1715780000
H 3.8914720000 1.9139210000 -0.7014790000
H 3.8053330000 2.1860380000 1.0402610000
H 2.4098170000 2.5560800000 0.0216100000
C 3.8666680000 -0.5602960000 0.6519810000
H 2.0422150000 0.4113860000 1.2357750000
H 4.4009270000 -0.2897180000 1.5671310000
H 4.5904690000 -0.5560090000 -0.1708730000
H 3.4916120000 -1.5792660000 0.7631360000
