19
0 2
Si 1.1223620000 -0.0000000000 0.3861380000
Si -1.1099990000 -0.0000000000 -0.3831040000
C 2.0216960000 -1.5511700000 -0.2089030000
H 1.1536430000 -0.0000000000 1.8803250000
C 2.0216960000 1.5511700000 -0.2089030000
C -2.0897530000 1.5484460000 0.1080960000
C -2.0897540000 -1.5484460000 0.1080970000
H 2.0418710000 1.6005100000 -1.3012120000
H 3.0558620000 1.5577150000 0.1489680000
H 1.5370210000 2.4593970000 0.1596480000
H 1.5370210000 -2.4593970000 0.1596470000
H 3.0558620000 -1.5577160000 0.1489680000
H 2.0418720000 -1.6005100000 -1.3012120000
H -2.2514590000 -1.5803860000 1.1920140000
H -1.5666660000 -2.4630610000 -0.1816190000
H -3.0716510000 -1.5567470000 -0.3743610000
H -2.2514590000 1.5803860000 1.1920140000
H -3.0716510000 1.5567480000 -0.3743610000
H -1.5666660000 2.4630610000 -0.1816190000
