12
0 1
F -1.9418500000 0.4208940000 0.2320730000
S -0.7980020000 -0.7183880000 -0.2280970000
C 0.6954880000 0.1298870000 0.3838120000
C 1.8622160000 -0.8129270000 0.0610370000
H 1.7380980000 -1.7926980000 0.5287030000
H 2.7911800000 -0.3773400000 0.4375360000
H 1.9725350000 -0.9527210000 -1.0179180000
C 0.8539370000 1.5187760000 -0.2302560000
H 0.5848440000 0.2092800000 1.4687660000
H 1.0178810000 1.4508050000 -1.3087170000
H 1.7086240000 2.0328630000 0.2214040000
H -0.0383330000 2.1215630000 -0.0564280000
