13
0 1
C -1.3936530000 -0.2027720000 -0.6147860000
O -0.1282940000 -0.7794350000 -0.2626000000
B 0.9667630000 -0.0009520000 -0.0287240000
O 2.1550580000 -0.5938210000 0.3158810000
O 0.8998560000 1.3630870000 -0.1350980000
C -2.2160260000 0.1203990000 0.6236470000
H -1.9025710000 -0.9462970000 -1.2327280000
H -1.2349690000 0.6960240000 -1.2166640000
H -2.3428560000 -0.7705210000 1.2435500000
H -3.2069550000 0.4857010000 0.3378410000
H -1.7262210000 0.8936080000 1.2199580000
H 1.7514610000 1.7729650000 0.0396040000
H 2.0734140000 -1.5511310000 0.3534380000
