14
0 1
P -0.0412090000 -0.7907230000 0.7408310000
C -1.3862360000 0.2986710000 -0.0079330000
C -2.6327780000 -0.4113780000 -0.4986090000
H -2.4144600000 -0.9148300000 -1.4454310000
H -3.4258990000 0.3212310000 -0.6512610000
H -2.9561350000 -1.1761570000 0.2125410000
C 1.5232700000 -0.1562570000 -0.1397950000
C 1.8796370000 1.2930970000 0.0740250000
H 2.7282440000 1.5550010000 -0.5585330000
H 2.1491020000 1.4372710000 1.1258970000
H 1.0178030000 1.9337880000 -0.1247670000
O 2.2055640000 -0.9417250000 -0.7459080000
O -1.2765730000 1.5022570000 -0.0235380000
H -0.2158050000 -1.9245050000 -0.0814730000
