8
0 1
Cl 1.6652160000 -0.5166820000 0.0449320000
N -1.2931570000 0.2629270000 0.4462670000
S 0.0555790000 0.9273950000 -0.1777480000
C -2.0238380000 -0.8173990000 -0.2203520000
H -1.3566430000 0.2592190000 1.4580060000
H -2.0718060000 -0.6027830000 -1.2875430000
H -3.0382560000 -0.8604950000 0.1822760000
H -1.5361180000 -1.7867470000 -0.0743770000
