19
0 1
Si -3.2507690000 -0.1985560000 -0.0000010000
C -1.3898440000 -0.0068970000 -0.0000010000
C -0.7795050000 1.2629430000 0.0000000000
C 0.5970160000 1.4075770000 0.0000010000
C 1.4231980000 0.2747920000 0.0000010000
C -0.5440630000 -1.1214850000 -0.0000020000
H -0.9683750000 -2.1204160000 -0.0000030000
C 0.8464290000 -0.9969920000 -0.0000010000
H 1.4592950000 -1.8884060000 -0.0000010000
H -1.3916750000 2.1599080000 0.0000000000
O 2.7614400000 0.5203060000 0.0000020000
C 3.6555290000 -0.5839020000 0.0000020000
H 3.5277670000 -1.2042720000 0.8940560000
H 4.6563850000 -0.1554920000 0.0000030000
H 3.5277680000 -1.2042710000 -0.8940530000
H 1.0642160000 2.3850980000 0.0000020000
H -3.8601900000 0.4354020000 1.1952420000
H -3.5883160000 -1.6418650000 -0.0000180000
H -3.8601910000 0.4354320000 -1.1952280000
