20
0 1
F 1.9174070000 -1.5846320000 -0.8485920000
N 0.5169200000 -1.8159660000 -0.6281220000
C 0.3285340000 -1.9963550000 0.8118910000
C 0.0107540000 -0.6725250000 0.2121490000
C 0.9869000000 0.4609500000 0.4669480000
O 1.6211090000 0.5914440000 1.4802240000
O 1.0497920000 1.2700360000 -0.5924950000
C 1.9587390000 2.3822970000 -0.4748350000
C -1.4402790000 -0.3631890000 -0.0525520000
O -2.2476910000 -1.1996210000 -0.3623610000
O -1.7172030000 0.9304300000 0.1605290000
C -3.0964170000 1.3118690000 -0.0227420000
H 1.2248220000 -2.0411240000 1.4176490000
H -0.4855460000 -2.6694060000 1.0521420000
H 2.9765990000 2.0209130000 -0.3245230000
H 1.6722760000 3.0175490000 0.3642330000
H 1.8759530000 2.9223810000 -1.4145420000
H -3.7391500000 0.7425660000 0.6495890000
H -3.1347790000 2.3728060000 0.2107890000
H -3.4027250000 1.1311740000 -1.0534880000
