15
0 1
C 0.2636380000 0.4559100000 0.0000070000
B -1.1389180000 -0.3143330000 0.0000140000
O -2.2477390000 0.4796140000 -0.0000180000
C 0.4438530000 1.2967410000 1.2656070000
H 0.3893450000 0.6853050000 2.1683670000
H -0.3559520000 2.0414170000 1.3095600000
C 0.4438340000 1.2967540000 -1.2655890000
Cl 1.6254600000 -0.8343110000 -0.0000100000
H -0.3559710000 2.0414300000 -1.3095230000
H 0.3893130000 0.6853260000 -2.1683540000
H 1.4059370000 1.8150910000 -1.2569830000
H 1.4059560000 1.8150780000 1.2569910000
H -3.0617840000 -0.0358890000 -0.0000290000
O -1.2818940000 -1.6642670000 0.0000060000
H -0.4259540000 -2.1120200000 0.0000140000
