13
0 1
C 0.5445760000 0.5173150000 -0.0534820000
C -0.5982450000 -0.4940980000 0.0336110000
N -1.8975720000 0.1780450000 -0.0949650000
H -0.4898510000 -1.0786530000 0.9636360000
H -0.5085270000 -1.2062920000 -0.7943670000
H -2.0567970000 0.7756910000 0.7115290000
H -2.6480900000 -0.5057240000 -0.0956350000
C 1.9287230000 -0.1320620000 0.0188080000
H 0.4385750000 1.2448190000 0.7616200000
H 0.4335010000 1.0807390000 -0.9850910000
H 2.0638730000 -0.6829660000 0.9549680000
H 2.7223240000 0.6170760000 -0.0411960000
H 2.0776710000 -0.8379380000 -0.8043360000
