14
0 1
C 0.0552300000 1.2086330000 0.0948450000
C 1.3232460000 0.8883420000 -0.1502610000
C 1.5649450000 -0.5993560000 -0.0462720000
C 0.1321680000 -1.1826460000 0.0178070000
H 2.1372840000 -0.8326290000 0.8605190000
H 2.1456630000 -0.9925390000 -0.8866390000
C -0.7883770000 -0.0085580000 0.4080600000
H 0.0412610000 -2.0336880000 0.6943610000
H -0.1872230000 -1.5075500000 -0.9752930000
H -0.3514950000 2.2142290000 0.1096590000
H 2.1146370000 1.5959330000 -0.3721880000
O -1.9975400000 -0.1022170000 -0.3533440000
H -1.0360850000 -0.0327700000 1.4810680000
H -2.6069880000 0.5682550000 -0.0298070000
