13
0 1
C -0.0000000000 -0.0000000000 -1.0045000000
C 0.0000000000 1.1944700000 -0.2616100000
C 0.0000000000 1.1434020000 1.1295150000
N 0.0000000000 0.0000000000 1.8226690000
C -0.0000000000 -1.1434020000 1.1295150000
C -0.0000000000 -1.1944700000 -0.2616100000
H 0.0000000000 2.1531360000 -0.7686640000
H 0.0000000000 2.0569710000 1.7176470000
H -0.0000000000 -2.0569710000 1.7176470000
H -0.0000000000 -2.1531360000 -0.7686640000
B -0.0000000000 -0.0000000000 -2.5494910000
H 0.0000000000 1.0305550000 -3.1485290000
H -0.0000000000 -1.0305550000 -3.1485290000
