15
0 1
C -0.4062970000 1.1041260000 -0.1716320000
C -1.7803560000 1.3081510000 -0.0931890000
C -2.6128310000 0.2040580000 0.0685660000
N -2.1575320000 -1.0501580000 0.1609040000
C -0.8376740000 -1.2303440000 0.0888760000
C 0.0939310000 -0.1963970000 -0.0758040000
H -2.2008840000 2.3052100000 -0.1572680000
H -3.6904500000 0.3272020000 0.1302890000
H 0.2779780000 1.9363530000 -0.2917140000
N 2.6000810000 0.8373190000 0.3542520000
H -0.5009060000 -2.2615240000 0.1766500000
P 1.8851830000 -0.5699490000 -0.2977620000
H 1.9543830000 -1.5029500000 0.7767290000
H 3.5080560000 1.0672470000 -0.0203320000
H 2.5355950000 1.0300080000 1.3450830000
