19
0 1
C -0.0028050000 -0.1616940000 0.7784100000
C -1.2121870000 -1.1011130000 0.6022430000
C -0.6134120000 1.2297720000 0.5441040000
C -1.6238840000 1.0301340000 -0.6029490000
H 0.1271750000 2.0036810000 0.3325270000
H -1.1352630000 1.5287300000 1.4618370000
C -2.1069040000 -0.4428390000 -0.4810470000
H -1.1294050000 1.1847150000 -1.5638290000
H -2.4474000000 1.7452390000 -0.5454070000
H -3.1607520000 -0.5008050000 -0.1994610000
H -2.0072870000 -0.9602600000 -1.4371930000
H -1.7459550000 -1.1476810000 1.5566550000
H -0.9181660000 -2.1226690000 0.3524330000
S 1.2931650000 -0.6242110000 -0.4518120000
H 0.4508360000 -0.2606840000 1.7674030000
C 2.6401560000 0.5050460000 0.0240840000
H 2.9244020000 0.3540560000 1.0675050000
H 2.3736740000 1.5498170000 -0.1415220000
H 3.4917250000 0.2574020000 -0.6110220000
