12
0 2
Si -0.0839570000 -1.1911640000 -0.1276340000
C 1.5566260000 -0.2609360000 0.1989400000
O 1.3468330000 1.1427370000 -0.0824620000
H 2.3581860000 -0.6714470000 -0.4280020000
H 1.8511320000 -0.3993970000 1.2475270000
H 2.1280530000 1.6381260000 0.1846250000
C -1.4831680000 -0.0461590000 0.4776140000
O -1.4679190000 1.1346360000 -0.3318280000
H -1.3684030000 0.1845350000 1.5460630000
H -2.4626910000 -0.5114250000 0.3502810000
H -0.5739310000 1.5034800000 -0.2715480000
H -0.2290080000 -1.4439920000 -1.5870660000
