13
0 1
N -0.0989050000 0.4386850000 -0.0000960000
B 1.2505540000 -0.1660330000 -0.0000390000
N -1.2506020000 -0.3236940000 -0.0001590000
O 1.4878760000 -1.4928170000 -0.0000710000
O 2.2712350000 0.7391730000 0.0000440000
O -2.3154150000 0.2672680000 0.0001690000
O -1.1355680000 -1.5554920000 0.0001760000
C -0.3230870000 1.8859400000 -0.0000570000
H -0.8825380000 2.1888370000 0.8861930000
H -0.8824590000 2.1888920000 -0.8863370000
H 0.6567810000 2.3541510000 0.0000030000
H 0.6496100000 -1.9843750000 -0.0001450000
H 3.1258800000 0.2970250000 0.0000730000
