7
0 1
F -1.7544950000 0.6099210000 0.0005120000
S -0.7598950000 -0.7522610000 -0.0003650000
C 0.8762280000 -0.0109030000 -0.0001020000
O 1.7930120000 -0.7993000000 0.0002770000
N 0.9219280000 1.3341880000 -0.0000470000
H 0.0732610000 1.8769470000 -0.0002750000
H 1.8205480000 1.7904360000 0.0002210000
