20
0 1
C -1.4036480000 0.2604540000 0.0000000000
C -0.6907520000 1.4684950000 0.0000000000
C 0.6907520000 1.4684950000 -0.0000000000
C -0.7008510000 -0.9405740000 -0.0000000000
C 0.7008510000 -0.9405740000 -0.0000010000
C 1.4036480000 0.2604540000 -0.0000010000
H -1.2185220000 -1.8903840000 -0.0000010000
H 1.2185220000 -1.8903840000 -0.0000010000
O 2.7675310000 0.3744350000 -0.0000010000
C 3.5373220000 -0.8151770000 -0.0000020000
H 4.5793950000 -0.4985000000 -0.0000030000
H 3.3453390000 -1.4213330000 -0.8936200000
H 3.3453400000 -1.4213340000 0.8936150000
H -1.2489920000 2.3968800000 0.0000010000
H 1.2489920000 2.3968800000 0.0000000000
O -2.7675310000 0.3744350000 0.0000000000
C -3.5373220000 -0.8151770000 0.0000040000
H -4.5793950000 -0.4985000000 0.0000060000
H -3.3453380000 -1.4213320000 0.8936220000
H -3.3453420000 -1.4213350000 -0.8936140000
