16
0 1
C -0.4713760000 1.1219680000 0.2733510000
C -1.8450500000 1.2751190000 0.1305090000
C -2.6127920000 0.1468750000 -0.1527180000
N -2.0976640000 -1.0768010000 -0.2941270000
C -0.7746680000 -1.2043770000 -0.1492750000
C 0.1051130000 -0.1493290000 0.1371940000
H -2.3159890000 2.2459390000 0.2328780000
H -3.6897250000 0.2291750000 -0.2732480000
H 0.1462480000 1.9888080000 0.4883450000
B 3.1150880000 0.8140810000 -0.7405570000
H -0.3907650000 -2.2144340000 -0.2705050000
Si 1.9569930000 -0.4464980000 0.3201780000
H 2.7513310000 1.9145990000 -1.0208360000
H 4.2194130000 0.5035540000 -1.0639990000
H 2.3632870000 -0.2164190000 1.7387790000
H 2.2191490000 -1.8745900000 0.0134040000
