20
0 1
C 1.1777390000 2.3966410000 0.1860510000
C -0.1879860000 2.1775050000 0.0631880000
C 2.0786460000 1.3347020000 0.1530560000
C 1.5568710000 0.0617880000 -0.0276050000
C 0.1984860000 -0.1880080000 -0.1773660000
C -0.7067740000 0.8806420000 -0.1119570000
H -0.1209050000 -1.1979240000 -0.3895810000
H 1.5456030000 3.4069610000 0.3199700000
H -0.8744340000 3.0164160000 0.1090560000
B -2.8956230000 -0.4642020000 0.0397010000
O -2.4571260000 -1.6193190000 0.6311060000
O -4.2137440000 -0.3570830000 -0.3110210000
H 3.1445360000 1.4735370000 0.2565310000
N 2.4874380000 -1.0914620000 -0.0877290000
O 3.6855110000 -0.8562510000 -0.0264770000
O 1.9995220000 -2.2096620000 -0.1900910000
H -4.7152380000 -1.1343350000 -0.0487880000
H -1.5672990000 -1.5872360000 0.9911560000
N -2.0807760000 0.6891820000 -0.2379230000
H -2.5959700000 1.5184480000 -0.4976310000
