9
0 1
Si 0.4726860000 -0.8120570000 0.3786530000
C -1.8891800000 1.1515260000 0.3715280000
S -1.4482280000 -0.4337980000 -0.4584960000
H -2.9029930000 1.3889200000 0.0512570000
H -1.2172440000 1.9487540000 0.0579310000
H -1.8725890000 1.0419730000 1.4553070000
Cl 1.9149890000 0.5820180000 -0.2053130000
H 0.8863530000 -2.1339980000 -0.1197710000
H 0.4407910000 -0.7395430000 1.8512320000
