16
0 1
C -0.4527280000 1.2978890000 0.7272560000
Si 0.6875920000 1.0360040000 -0.7626750000
C 1.3555330000 -0.7305520000 -0.8759370000
H 1.8240490000 1.9766660000 -0.6307960000
H -0.0159040000 1.3241370000 -2.0313070000
N 2.1001790000 -1.3134780000 -0.0199130000
O 2.3726630000 -0.4724160000 1.0788520000
H 2.9502390000 -1.0140580000 1.6265480000
H 1.1209550000 -1.3659280000 -1.7282150000
C -1.6988850000 0.4678270000 0.7302550000
N -1.9060350000 -0.3685890000 -0.2042770000
H -2.4284030000 0.5765730000 1.5367680000
O -3.1140960000 -1.0586440000 -0.0329620000
H -3.1337690000 -1.6439690000 -0.7965720000
H -0.7217080000 2.3610620000 0.7791720000
H 0.1272070000 1.0934330000 1.6346180000
