14
0 1
F -2.4000800000 0.3009830000 0.0667420000
S -1.2242690000 -0.8599080000 -0.2072960000
C 0.2633360000 0.2154240000 0.0736730000
O 1.2290210000 -0.7917540000 -0.1245930000
O 0.2942470000 0.7436240000 1.3603300000
C 2.5981630000 -0.3777320000 -0.0908650000
H 2.8627730000 0.2031780000 -0.9798430000
H 3.1867830000 -1.2934360000 -0.0735460000
H 2.8048400000 0.2080630000 0.8085350000
C 0.3159080000 1.3786960000 -0.9007690000
H 0.4448320000 1.0096530000 -1.9179460000
H 1.1349080000 2.0525270000 -0.6401060000
H -0.6191480000 1.9352130000 -0.8373220000
H 0.1234570000 0.0211940000 1.9781510000
