8
0 1
B -1.8221940000 0.9385370000 0.0000080000
B -1.2103730000 -0.6119510000 -0.0000430000
O 0.1467620000 -0.9569850000 0.0000720000
C 1.0807330000 -0.0606110000 0.0001970000
N 1.9435320000 0.7081990000 -0.0002220000
H -2.0927250000 1.5018650000 1.0161070000
H -2.0926600000 1.5019600000 -1.0160570000
H -1.9149960000 -1.5746080000 -0.0000770000
