18
0 1
Cl 1.8276800000 -1.6578490000 0.5932270000
N 0.3447440000 1.2993940000 -0.5130160000
N 2.2926470000 1.5906570000 1.0742790000
P 2.5921670000 -0.3154070000 -0.8422680000
C 1.8076200000 1.2959010000 -0.2449600000
Cl -1.8276900000 -1.6578450000 -0.5932270000
N -0.3447390000 1.2993980000 0.5130150000
N -2.2926410000 1.5906560000 -1.0742820000
P -2.5921650000 -0.3154000000 0.8422720000
C -1.8076150000 1.2959050000 0.2449590000
H -2.0032070000 2.5219600000 -1.3576330000
H -1.8914030000 0.9428560000 -1.7454550000
H 1.8914090000 0.9428590000 1.7454550000
H 2.0032140000 2.5219620000 1.3576270000
H -1.6044160000 -0.5798970000 1.8249240000
H -2.2147870000 2.0237550000 0.9577770000
H 1.6044240000 -0.5799010000 -1.8249260000
H 2.2147920000 2.0237480000 -0.9577810000
