15
0 1
F -1.5220830000 -0.7903020000 0.9816280000
S -0.9721630000 -0.7216990000 -0.6076630000
C 0.1956580000 0.6630060000 -0.4140730000
C 1.3814380000 0.3156000000 0.5032950000
C -0.5294110000 1.9442290000 0.0096280000
H -0.9875490000 1.8110040000 0.9916780000
H -1.3164120000 2.2053260000 -0.6995510000
H 0.1772280000 2.7770440000 0.0715030000
H 0.5506730000 0.7635140000 -1.4513120000
C 2.3201430000 -0.7624880000 -0.0393710000
H 0.9821010000 0.0146150000 1.4766370000
H 1.9461950000 1.2395880000 0.6734920000
H 1.7927030000 -1.7052220000 -0.1989580000
H 3.1380110000 -0.9497540000 0.6607450000
H 2.7634400000 -0.4582880000 -0.9931470000
