14
0 1
Si -2.0956370000 -0.0027850000 -0.0171040000
C -0.1415860000 -0.0002060000 -0.0011820000
N 0.4321410000 0.0396750000 -1.4205750000
O 1.3680880000 0.7697660000 -1.6446800000
O -0.1341270000 -0.7118980000 -2.1930540000
N 0.4127750000 1.2142770000 0.7492630000
O 1.3420790000 1.0519190000 1.5037740000
O -0.1602430000 2.2537890000 0.4784780000
N 0.4166370000 -1.2522690000 0.6815970000
O -0.1652120000 -1.5426820000 1.7108550000
O 1.3567360000 -1.8161010000 0.1740900000
H -2.4925850000 0.8904320000 -1.1150290000
H -2.5116940000 0.4978550000 1.3008810000
H -2.4967380000 -1.3981820000 -0.2469940000
