12
0 2
N -0.9541730000 0.0000000000 0.4349480000
F -1.6871620000 1.1112450000 -0.0442440000
F -1.6871620000 -1.1112450000 -0.0442440000
Si 0.6640170000 0.0000000000 -0.4402630000
C 1.4848240000 -1.5733740000 0.1751620000
H 1.5177060000 -1.5809140000 1.2699530000
H 2.5085110000 -1.6346870000 -0.2035360000
H 0.9407870000 -2.4583910000 -0.1596710000
C 1.4848240000 1.5733740000 0.1751620000
H 1.5177060000 1.5809140000 1.2699530000
H 0.9407880000 2.4583910000 -0.1596710000
H 2.5085110000 1.6346870000 -0.2035360000
