17
0 1
S -0.2080310000 -0.5148330000 0.1660200000
C 1.2056130000 0.4532990000 -0.5101030000
Si -2.1191660000 0.5903530000 -0.2850640000
O -0.0609080000 -0.5684270000 1.6199280000
O -0.2873790000 -1.7533610000 -0.6079750000
C 1.3205190000 1.8030360000 0.1940550000
H 0.4248160000 2.4171510000 0.0694080000
H 2.1619770000 2.3631450000 -0.2227600000
H 1.4920080000 1.6631350000 1.2628410000
C 2.4606970000 -0.4127490000 -0.3774670000
H 0.9473240000 0.5787790000 -1.5665320000
H 3.3038340000 0.1016830000 -0.8457740000
H 2.3260560000 -1.3784140000 -0.8653960000
H 2.7022220000 -0.5836410000 0.6736950000
H -2.1730480000 1.8556620000 0.4728500000
H -3.1460730000 -0.3660820000 0.1623970000
H -2.1769670000 0.8337570000 -1.7406770000
