15
0 1
C -0.1508610000 1.5296150000 -1.5938260000
Si 0.0000070000 0.6159970000 -0.0000260000
H -0.1965050000 0.8227880000 -2.4241490000
H 0.7062320000 2.1927960000 -1.7398470000
H -1.0639010000 2.1295880000 -1.5985300000
C 0.1509440000 1.5298670000 1.5936230000
H 0.1965330000 0.8231750000 2.4240640000
H -0.7060990000 2.1931390000 1.7395340000
H 1.0640300000 2.1297710000 1.5982260000
N 1.4298120000 -0.5684430000 -0.1749060000
N -1.4298900000 -0.5683000000 0.1750560000
O -1.3371330000 -1.3946600000 1.0782210000
O -2.3971430000 -0.4374620000 -0.5679990000
O 2.3971520000 -0.4374390000 0.5680060000
O 1.3370810000 -1.3948030000 -1.0780730000
