18
0 1
Si -2.5991750000 0.0279660000 0.0000010000
C -0.8750100000 0.8196090000 -0.0000010000
C 0.1866820000 -0.2733240000 -0.0000020000
O -0.1609300000 -1.4506110000 -0.0000000000
N 1.5081560000 0.0877610000 -0.0000010000
H -2.8295930000 -0.7749630000 -1.2179280000
C 2.5289250000 -0.9525650000 0.0000010000
H 2.0360590000 -1.9208780000 0.0000000000
H 3.1638110000 -0.8651510000 0.8887330000
H 3.1638150000 -0.8651510000 -0.8887280000
H -3.5777470000 1.1483090000 0.0000030000
H -2.8295900000 -0.7749640000 1.2179300000
C 2.0076420000 1.4519890000 0.0000000000
H 1.1923930000 2.1695030000 -0.0000030000
H 2.6269400000 1.6342410000 -0.8863260000
H 2.6269330000 1.6342420000 0.8863310000
H -0.7718280000 1.4697960000 0.8757020000
H -0.7718310000 1.4697960000 -0.8757050000
