16
0 1
O -0.6288390000 -1.3174740000 -0.3350770000
O 0.6288710000 -1.3177120000 0.3341660000
C 1.4581440000 -0.3907920000 -0.2556980000
C -1.4582580000 -0.3912830000 0.2557270000
O -1.1931310000 0.3720730000 1.1160660000
O 1.1929510000 0.3732510000 -1.1154080000
C 3.7100070000 0.2373800000 0.0697480000
C -3.7099630000 0.2374670000 -0.0697000000
F -4.0624600000 0.0886900000 1.2037300000
F -4.7094740000 -0.1455910000 -0.8493930000
F -3.4344050000 1.5167160000 -0.3004580000
F 4.0621560000 0.0897710000 -1.2039150000
F 4.7096720000 -0.1465390000 0.8488190000
F 3.4346640000 1.5164420000 0.3017930000
O -2.6342100000 -0.5819370000 -0.3971670000
O 2.6342380000 -0.5822050000 0.3967140000
