22
0 1
C 1.1074190000 -1.2081000000 0.0000880000
C 2.4996050000 -1.2464070000 0.0001050000
C 0.4109820000 0.0116350000 -0.0000140000
C 1.1635270000 1.1963870000 -0.0001010000
C 2.5569920000 1.1631890000 -0.0000870000
C 3.2276050000 -0.0577920000 0.0000170000
O -1.8249270000 1.6805290000 -0.0003390000
H 0.5613510000 -2.1476930000 0.0001550000
H 3.0160900000 -2.2002680000 0.0001850000
H 4.3118940000 -0.0842860000 0.0000280000
H 3.1194900000 2.0907480000 -0.0001580000
H 0.6479060000 2.1500830000 -0.0001850000
Si -1.4629160000 0.0552040000 -0.0000160000
H -2.7461450000 1.9469070000 -0.0001580000
C -2.1539030000 -0.7802850000 1.5329930000
H -1.7760330000 -0.3019800000 2.4406710000
H -1.8659530000 -1.8359040000 1.5684840000
H -3.2481760000 -0.7404290000 1.5564860000
C -2.1539000000 -0.7809100000 -1.5326830000
H -1.8659220000 -1.8365350000 -1.5677700000
H -1.7760590000 -0.3029440000 -2.4405520000
H -3.2481730000 -0.7410900000 -1.5561720000
