18
0 1
Si 0.3910190000 0.6265510000 -0.3992940000
B -1.3762210000 -0.2993800000 0.0296710000
O -2.3559440000 -0.5876830000 -0.8873570000
O -1.6115640000 -0.6528740000 1.3263600000
C 1.8627070000 -0.3323470000 0.3103620000
C 1.9748320000 -1.7905670000 -0.1652410000
H 1.7800890000 -0.3038050000 1.4033590000
H 2.7797970000 0.2151950000 0.0616430000
H 2.0621160000 -1.8522630000 -1.2542970000
H 1.0964910000 -2.3728640000 0.1286290000
C 0.4004020000 2.4012600000 0.2530900000
H 1.3484040000 2.8992890000 0.0295460000
H 0.2590700000 2.4132760000 1.3376070000
H -0.4022320000 2.9948610000 -0.1934750000
H 2.8515040000 -2.2872550000 0.2613980000
H -2.1228900000 -0.3314470000 -1.7833490000
H -2.4732490000 -1.0767080000 1.4366400000
H 0.5401500000 0.6812900000 -1.8872350000
