10
0 1
Si -0.5802510000 -0.0000000000 0.3721390000
Si 1.7467440000 -0.0000010000 -0.0563100000
O -1.2602860000 -1.3851570000 -0.2201510000
H -1.0174070000 -1.7041210000 -1.0918980000
O -1.2602840000 1.3851580000 -0.2201510000
H -1.0173900000 1.7041320000 -1.0918900000
H 2.4045460000 1.2057450000 0.5044120000
H 1.9812500000 0.0000010000 -1.5267860000
H 2.4045440000 -1.2057500000 0.5044090000
H -0.9218850000 -0.0000020000 1.8025550000
