11
0 1
Si 0.0000180000 0.0000050000 0.2516500000
N 1.6742600000 0.3354720000 -0.4603860000
N -0.5465520000 -1.6176840000 -0.4603930000
N -1.1276150000 1.2822140000 -0.4604090000
Cl -0.0000070000 0.0000220000 2.2505050000
O -1.8389710000 0.9621450000 -1.3975470000
O -1.5448170000 -2.0955250000 0.0596970000
O 1.7526370000 1.1111450000 -1.3978770000
O 0.0860400000 -2.0734060000 -1.3978690000
O 2.5872220000 -0.2900800000 0.0597550000
O -1.0422090000 2.3856630000 0.0596690000
