18
0 1
C 0.1806350000 2.2570590000 -0.1991030000
C -1.0538630000 1.6122840000 -0.1517440000
C 1.3563650000 1.5188740000 -0.1161670000
C 1.2584340000 0.1375030000 0.0039490000
C 0.0347170000 -0.5185370000 0.0385080000
C -1.1561780000 0.2158210000 -0.0350090000
H 0.0338330000 -1.5963870000 0.1421550000
H 0.2296100000 3.3346890000 -0.3007350000
H -1.9573240000 2.2099410000 -0.2279250000
B -2.5610630000 -0.5087900000 0.0104160000
O -2.7559000000 -1.7477860000 -0.5208650000
O -3.6545200000 0.0705110000 0.5832700000
H 2.3317330000 1.9840420000 -0.1431550000
N 2.5038400000 -0.6620740000 0.0939020000
O 2.3908060000 -1.8769150000 0.1820480000
O 3.5664190000 -0.0574680000 0.0722640000
H -3.4572760000 0.8881310000 1.0455880000
H -1.9972400000 -2.0867070000 -1.0016690000
