12
0 1
Si 1.6570930000 -0.0073750000 -0.0000020000
O 0.0562540000 -0.3975380000 -0.0000010000
C -1.0244510000 0.5380660000 0.0000040000
C -2.3368290000 -0.2250610000 0.0000010000
H -0.9569000000 1.1826670000 -0.8863120000
H -0.9568990000 1.1826570000 0.8863270000
H -2.4071620000 -0.8609350000 -0.8852100000
H -3.1827790000 0.4682860000 0.0000050000
H -2.4071610000 -0.8609440000 0.8852050000
H 2.3930300000 -1.2860180000 -0.0000090000
H 2.0181110000 0.7899020000 1.2000550000
H 2.0181070000 0.7899130000 -1.2000540000
