20
0 1
C -1.0513480000 0.1272970000 -0.2294500000
B 1.9594670000 0.0733430000 0.1075340000
C 3.1072010000 -0.8401650000 0.6740870000
H 2.9919080000 -0.8590030000 1.7684450000
H 4.0991400000 -0.4127730000 0.4891110000
H 3.1016820000 -1.8793840000 0.3367310000
O -1.1386720000 1.3247900000 -0.3725400000
C -2.1923230000 -0.7202470000 0.3240570000
C 2.0584180000 1.6347300000 0.1488080000
H 2.5727800000 1.9535250000 -0.7709600000
H 2.6756960000 1.9912640000 0.9800800000
H 1.0945440000 2.1476260000 0.1505980000
C -3.4828110000 0.0680880000 0.5384220000
H -1.8405500000 -1.1655010000 1.2627610000
H -2.3470090000 -1.5645750000 -0.3580170000
H -3.3211140000 0.9029010000 1.2221570000
H -4.2591470000 -0.5772450000 0.9560130000
H -3.8492310000 0.4833930000 -0.4024280000
P 0.4926120000 -0.7737440000 -0.7889630000
H 0.3693450000 -1.9973210000 -0.0929410000
