8
0 2
C -0.0272910000 0.8863670000 0.0000000000
C -0.0272910000 -0.3637590000 0.7679650000
C -0.0272910000 -0.3637590000 -0.7679650000
H 0.6327540000 1.7416160000 0.0000000000
H 0.8741290000 -0.6636640000 -1.2978670000
H -0.9448880000 -0.6836900000 -1.2560230000
H -0.9448880000 -0.6836900000 1.2560230000
H 0.8741290000 -0.6636640000 1.2978670000
