18
0 1
C 0.9037240000 1.8573740000 0.1098640000
C -0.3203150000 2.4193440000 -0.2426280000
C -1.4582840000 1.6224340000 -0.3131150000
C -1.3660960000 0.2595780000 -0.0299140000
C -0.1410110000 -0.3039420000 0.3199020000
C 1.0140340000 0.4873570000 0.3931550000
H 1.7809830000 2.4940520000 0.1623860000
H -0.3889230000 3.4780420000 -0.4633640000
Si 2.6556940000 -0.2696190000 0.8542120000
H -0.0923430000 -1.3661760000 0.5290170000
Cl 3.7461110000 -0.7769880000 -0.8524640000
H -2.4125950000 2.0515200000 -0.5923500000
C -2.6103020000 -0.5872950000 -0.0518400000
F -3.4636590000 -0.2032730000 -1.0259750000
F -3.2905190000 -0.5017340000 1.1155470000
F -2.3353700000 -1.8935790000 -0.2487640000
H 2.4462270000 -1.5152150000 1.6152270000
H 3.4784870000 0.6994170000 1.6021740000
