11
0 1
O 0.8862970000 0.0714390000 0.7383380000
O 0.0000000000 0.9194420000 -0.0000010000
O -0.8862960000 0.0714340000 -0.7383360000
C 2.0617150000 -0.0778510000 0.0014920000
F 2.8387630000 -0.8342250000 0.7647330000
F 2.6512190000 1.0923630000 -0.2268780000
F 1.8476010000 -0.6783790000 -1.1653610000
C -2.0617150000 -0.0778510000 -0.0014920000
F -2.8387610000 -0.8342310000 -0.7647300000
F -2.6512200000 1.0923650000 0.2268690000
F -1.8476040000 -0.6783710000 1.1653650000
