26
0 1
C -0.4804310000 -0.6712050000 -0.0761840000
O -0.2231010000 -1.8555190000 -0.2105440000
N 0.4742210000 0.3116060000 0.0659980000
C -1.9032420000 -0.1789670000 -0.0355760000
C 1.8796340000 0.1946110000 0.0470230000
C -2.2875950000 1.1184020000 -0.3947450000
C -3.6282730000 1.4929460000 -0.3534680000
C -4.5969460000 0.5761280000 0.0480080000
C -4.2226810000 -0.7222480000 0.3930500000
C -2.8860480000 -1.0999350000 0.3422930000
C 2.6222480000 1.3605470000 0.2847170000
C 2.5520100000 -1.0086320000 -0.2046340000
C 3.9446710000 -1.0228390000 -0.2143280000
C 4.6829110000 0.1337250000 0.0221770000
C 4.0106300000 1.3284740000 0.2729250000
H 2.1055250000 2.2959930000 0.4788740000
H 4.5665430000 2.2402920000 0.4599290000
H 1.9826480000 -1.9075270000 -0.3800680000
H 4.4552610000 -1.9593450000 -0.4095040000
H 5.7661210000 0.1062110000 0.0122760000
H -4.9748040000 -1.4411980000 0.6972930000
H -2.5773720000 -2.1083230000 0.5875800000
H -1.5541350000 1.8350320000 -0.7486690000
H -3.9160630000 2.4966030000 -0.6448480000
H -5.6401200000 0.8692480000 0.0823370000
H 0.1303240000 1.2298770000 0.2996090000
