15
0 1
Cl -2.6405970000 -0.3095070000 0.0420610000
O -0.9638770000 -0.2267060000 -0.4005000000
C -0.3141360000 0.8888290000 0.2312570000
C 1.1470610000 0.8121690000 -0.1956420000
H -0.7772550000 1.8227610000 -0.1035870000
C 1.8965730000 -0.4119980000 0.3433670000
H 1.6306150000 1.7327180000 0.1543910000
H 1.1935850000 0.8321850000 -1.2899650000
C 3.3585570000 -0.4553410000 -0.1076250000
H 1.3800420000 -1.3189190000 0.0176020000
H 1.8492390000 -0.4064710000 1.4389710000
H 3.4346460000 -0.4956830000 -1.1985340000
H 3.8703220000 -1.3343210000 0.2924570000
H 3.9065510000 0.4302470000 0.2298620000
H -0.4149110000 0.8107880000 1.3196210000
