7
0 2
C -0.8701820000 0.0000000000 0.0038930000
Si 0.9483870000 0.0000000000 -0.6785560000
Cl -0.9205940000 0.0000030000 1.7957350000
Cl -1.6902060000 -1.4678990000 -0.6318180000
Cl -1.6902080000 1.4678960000 -0.6318230000
Cl 1.9135530000 -1.6896280000 0.0126710000
Cl 1.9135530000 1.6896280000 0.0126710000
