16
0 1
S -0.1379650000 1.2650610000 -0.6317240000
P -1.3707550000 -0.2306560000 0.2708790000
O -1.1028370000 -0.4165470000 1.6967840000
O -1.3190420000 -1.5241310000 -0.6621510000
O 1.3018500000 0.9680750000 0.2249570000
C 2.1134540000 -0.0974140000 -0.1288220000
C 1.9471920000 -0.8921400000 -1.1883180000
C 3.2065940000 -0.2079670000 0.8890740000
H 3.8810760000 -1.0281600000 0.6446220000
H 2.7776520000 -0.3725390000 1.8808630000
H 3.7773110000 0.7239140000 0.9283310000
H 1.1687630000 -0.7253470000 -1.9204430000
H 2.6582130000 -1.6854520000 -1.3712450000
H -0.4451150000 -1.9405150000 -0.6350310000
O -2.8113540000 0.2915890000 -0.1832470000
H -3.2015000000 0.8802110000 0.4749540000
