17
0 1
N -2.5375700000 -0.3184990000 0.7285020000
O -1.8712680000 -0.1584430000 1.6717920000
S -1.6071720000 -0.4189400000 -0.9666430000
C 0.0803340000 -0.2817600000 -0.4527360000
C 0.8225830000 -1.4608370000 -0.2976710000
C 2.1484350000 -1.4140170000 0.1152530000
C 2.7364880000 -0.1814720000 0.3868140000
C 1.9978300000 0.9901350000 0.2452980000
C 0.6633110000 0.9727210000 -0.1704510000
H 0.3478740000 -2.4110050000 -0.5104950000
H 2.7147480000 -2.3313400000 0.2263260000
H 2.4647790000 1.9449390000 0.4625020000
H 3.7701130000 -0.1300800000 0.7100450000
C -0.1039070000 2.2634700000 -0.3063340000
H 0.5482820000 3.1192880000 -0.1248830000
H -0.9280550000 2.3115870000 0.4107360000
H -0.5402920000 2.3672440000 -1.3028270000
