8
0 1
Si 1.3569180000 0.5145630000 -0.0000020000
Si -0.9118840000 -0.0695660000 -0.0000010000
Cl -2.0596900000 1.6340040000 -0.0000210000
Cl -1.3327440000 -1.1778320000 1.6773170000
F 1.6847860000 1.3963920000 1.2811790000
Cl 2.5747790000 -1.1232930000 0.0000180000
Cl -1.3327370000 -1.1778660000 -1.6772990000
F 1.6847920000 1.3963650000 -1.2812010000
