20
0 1
Si 0.4739250000 -0.0356400000 -0.2995440000
N 1.3246330000 -0.2512770000 1.3691270000
N 0.6879570000 1.8135800000 -0.5790870000
P -1.7278900000 -0.4149870000 0.0870330000
C 1.4091110000 -0.9519950000 -1.6063080000
O -2.0629340000 0.4542580000 1.3849970000
O -0.3165560000 2.4321990000 -0.9435490000
O 2.4988730000 -0.5761060000 1.3902240000
O 1.7963060000 2.3036920000 -0.4403500000
O 0.6334000000 -0.0516510000 2.3745740000
O -1.9711700000 -1.8592290000 0.1058840000
C 1.3951520000 -2.4827300000 -1.4030820000
H 2.4302520000 -0.5576280000 -1.6076120000
H 0.9606770000 -0.6825950000 -2.5699160000
H 1.9091190000 -2.7585370000 -0.4803860000
H 1.9128500000 -2.9710530000 -2.2309400000
H 0.3772500000 -2.8741650000 -1.3576500000
H -1.4566910000 0.2579190000 2.1201090000
O -2.5108120000 0.3787290000 -1.0474770000
H -2.3006310000 1.3269020000 -1.0538490000
