19
0 1
C 3.4913330000 1.1788610000 0.0000100000
C 2.1103620000 1.3269730000 -0.0000250000
C 4.0597760000 -0.0936210000 0.0000280000
C 3.2304570000 -1.2117930000 0.0000110000
C 1.8437190000 -1.0816270000 -0.0000250000
C 1.2803830000 0.1990670000 -0.0000440000
H 1.6710370000 2.3198000000 -0.0000390000
H 4.1223640000 2.0600420000 0.0000230000
H 3.6622200000 -2.2060890000 0.0000240000
H 1.2030250000 -1.9496470000 -0.0000410000
N -0.1167540000 0.4277580000 -0.0000830000
H 5.1369350000 -0.2104790000 0.0000560000
C -1.1205370000 -0.4881880000 -0.0001010000
H -0.4013470000 1.3965080000 -0.0000890000
O -1.0293300000 -1.6948120000 0.0000140000
C -2.5378940000 0.1476350000 0.0000150000
F -3.2184310000 -0.2378740000 -1.0851890000
F -2.5063770000 1.5080570000 0.0000500000
F -3.2182940000 -0.2379370000 1.0852850000
