15
0 1
C 0.9861480000 -1.2088660000 0.0000070000
C 1.6830340000 -0.0034450000 -0.0000060000
C 1.0181570000 1.2208670000 -0.0000020000
C -2.5739110000 0.1090610000 0.0000540000
O -3.2126260000 1.1338860000 -0.0000100000
O -3.1638990000 -1.1112850000 -0.0000210000
H -4.1186340000 -0.9505120000 -0.0000640000
C -0.4035650000 -1.1862250000 0.0000250000
C -0.3699660000 1.2319800000 0.0000160000
C -1.0893370000 0.0327560000 0.0000310000
H 1.5824510000 2.1441100000 -0.0000120000
H -0.9156670000 2.1671520000 0.0000210000
H 1.5262120000 -2.1464940000 0.0000040000
H -0.9594730000 -2.1142450000 0.0000360000
Cl 3.4349380000 -0.0269170000 -0.0000290000
