12
0 1
C 1.2036500000 -0.0772720000 -0.8434760000
O 1.7604990000 -1.2680790000 -0.3403310000
H 1.0537690000 -1.9083870000 -0.2089450000
C 0.2183830000 0.5899490000 0.1143260000
H 0.6921980000 -0.2116360000 -1.8047190000
H 2.0235320000 0.6284980000 -0.9856750000
C -1.1294800000 -0.1193270000 0.2946210000
F -0.0673110000 1.8452950000 -0.3587020000
F 0.7634960000 0.7322080000 1.3556690000
F -0.9129420000 -1.4037150000 0.7198840000
F -1.7658420000 -0.1866860000 -0.9046300000
H -1.7654130000 0.3921390000 1.0191700000
