28
0 1
C 2.0014210000 -1.0703710000 0.7224580000
C 0.6918620000 -0.6202820000 0.7452360000
C 3.0147490000 -0.3003020000 0.1392490000
C 2.6874930000 0.9322890000 -0.4267470000
C 1.3619800000 1.3676700000 -0.4258920000
C 0.3452780000 0.6085680000 0.1581730000
N -0.9645890000 1.1186080000 0.2024720000
H 2.2705330000 -2.0177540000 1.1738740000
H -0.0682470000 -1.2148170000 1.2357050000
H 3.4433390000 1.5564630000 -0.8841100000
H 1.1161860000 2.3160270000 -0.8927400000
C -2.1714810000 0.4372160000 0.0434690000
H -1.0380120000 2.1228110000 0.2320350000
C -3.3644990000 1.0961230000 0.3905790000
C -2.2552710000 -0.8655960000 -0.4738810000
C -3.4941320000 -1.4821290000 -0.6219640000
C -4.6726100000 -0.8251310000 -0.2761530000
C -4.5946700000 0.4739030000 0.2248850000
H -1.3564030000 -1.3850710000 -0.7780930000
H -3.5339560000 -2.4880410000 -1.0259840000
H -3.3153830000 2.1011820000 0.7984910000
H -5.6323030000 -1.3131230000 -0.3964570000
H -5.4989580000 1.0066280000 0.4985110000
O 4.2717530000 -0.8357990000 0.1802270000
C 5.3353380000 -0.0964060000 -0.3981090000
H 5.1769540000 0.0670910000 -1.4705200000
H 6.2304710000 -0.7000440000 -0.2563580000
H 5.4711320000 0.8714680000 0.0987100000
