19
0 1
S -0.8864470000 -0.6411880000 0.5195210000
O -1.0027070000 -2.0891130000 0.3862690000
P -2.0866270000 0.2567760000 -1.1603230000
C 0.8241340000 -0.1958330000 0.1913270000
C 1.5868630000 -1.0034660000 -0.6512250000
C 2.9043680000 -0.6436260000 -0.9196030000
C 3.4452590000 0.5084990000 -0.3487710000
C 2.6747040000 1.3029830000 0.4987310000
C 1.3547310000 0.9535230000 0.7743640000
H 3.1031920000 2.1890680000 0.9526580000
H 0.7462580000 1.5402340000 1.4505910000
H 1.1550620000 -1.9048400000 -1.0674490000
H 3.5107900000 -1.2659840000 -1.5672890000
H 4.4727580000 0.7828530000 -0.5589410000
O -1.2759140000 0.0457100000 1.7508360000
N -2.5739610000 1.7320060000 -0.4992920000
H -2.0249900000 2.5331390000 -0.7790480000
H -2.8085170000 1.7580610000 0.4874550000
H -3.1656620000 -0.5344690000 -0.6961970000
