9
0 1
F 1.6973190000 -0.7254280000 -0.0000060000
F 0.6790120000 1.3221500000 -0.0000100000
N -0.6777310000 -0.6393380000 0.0000050000
B 0.5647650000 -0.0117950000 -0.0000070000
C -1.9722820000 0.0279280000 0.0000140000
H -0.7024210000 -1.6476220000 0.0000120000
H -1.8146090000 1.1060430000 -0.0000090000
H -2.5579720000 -0.2310530000 0.8879200000
H -2.5580000000 -0.2310870000 -0.8878640000
