17
0 1
C -2.1015850000 1.0918910000 0.0000140000
C -1.6063260000 -0.2168390000 0.0000160000
C -0.2245930000 -0.4583330000 0.0000090000
C -1.2028100000 2.1547910000 0.0000040000
C 0.1675490000 1.9267340000 -0.0000030000
C 0.6611070000 0.6178600000 -0.0000010000
H -1.5748800000 3.1724310000 0.0000010000
H 0.8767570000 2.7449890000 -0.0000100000
O 2.0135400000 0.4612080000 -0.0000090000
Si 2.9637220000 -0.9096930000 0.0000040000
H -3.1698120000 1.2641040000 0.0000180000
H 0.1372000000 -1.4792370000 0.0000100000
C -2.5120600000 -1.3255500000 0.0000240000
N -3.2415260000 -2.2212300000 -0.0000570000
H 4.3460020000 -0.4044270000 -0.0000030000
H 2.6936460000 -1.7232820000 -1.2058790000
H 2.6936480000 -1.7232570000 1.2059040000
