18
0 1
Cl 1.8953510000 -1.9886580000 0.0000140000
Cl 3.1928010000 0.7261840000 0.0000120000
B 1.6975510000 -0.2246170000 -0.0000270000
C 0.3052650000 0.4383550000 -0.0000170000
C -0.8639610000 -0.3533130000 -0.0000120000
C -2.1241050000 0.2395790000 -0.0000030000
C -2.2315280000 1.6378120000 0.0000000000
C 0.1731710000 1.8369440000 -0.0000130000
H 1.0569070000 2.4617460000 -0.0000170000
C -1.0895260000 2.4249540000 -0.0000050000
H -1.1852030000 3.5047030000 -0.0000020000
H -3.2223750000 2.0762050000 0.0000070000
H -0.7662910000 -1.4295170000 -0.0000150000
O -3.3034560000 -0.4397420000 0.0000020000
C -3.2684650000 -1.8619830000 0.0000000000
H -2.7691350000 -2.2506640000 0.8940940000
H -2.7691460000 -2.2506620000 -0.8941010000
H -4.3085400000 -2.1828150000 0.0000060000
