9
0 1
Cl 2.5489220000 0.6317600000 0.0482770000
S 1.3212490000 -1.0266480000 -0.0541670000
P -1.3376960000 0.0333630000 -0.0896700000
O -1.8731180000 -0.8751960000 -1.0984580000
O -2.2956280000 0.4272300000 1.1137860000
H -2.8818160000 -0.2952580000 1.3692870000
O -0.8205100000 1.4461500000 -0.5909530000
H -1.1346600000 1.6538890000 -1.4791320000
O -0.0594620000 -0.5197600000 0.7632330000
