10
0 2
C 1.3205560000 -0.2418130000 0.0000000000
C 0.0708950000 0.5710220000 -0.0000020000
H 1.7458100000 -0.6095230000 0.9266260000
H 1.7457970000 -0.6095470000 -0.9266220000
C -1.2186830000 -0.2844840000 0.0000020000
H 0.0516360000 1.2256890000 -0.8790170000
H 0.0516370000 1.2256980000 0.8790060000
H -1.2619760000 -0.9272890000 -0.8832590000
H -2.1075310000 0.3539010000 -0.0000010000
H -1.2619750000 -0.9272810000 0.8832690000
