10
0 1
F 1.6792950000 1.3174150000 -0.0001140000
F 2.0218640000 -0.9387710000 -0.0001490000
B 1.2148520000 0.0874150000 0.0001740000
S -0.6589560000 -0.2245820000 0.0000530000
O -0.9803650000 -0.8633480000 1.2659900000
C -1.4083100000 1.4079460000 0.0000060000
O -0.9802270000 -0.8633650000 -1.2659110000
H -1.1110400000 1.9423230000 0.9015290000
H -2.4848340000 1.2298390000 -0.0000540000
H -1.1109390000 1.9423160000 -0.9014870000
