8
0 1
C 1.1561350000 0.2430600000 0.0000000000
C -0.3607680000 0.1905510000 0.0000000000
H 1.4888980000 0.7680190000 0.8975750000
H 1.4888980000 0.7680190000 -0.8975750000
F 1.6643870000 -1.0384210000 0.0000000000
F -0.8418330000 -0.4372990000 -1.0855510000
F -0.8418330000 1.4532730000 0.0000000000
F -0.8418330000 -0.4372990000 1.0855510000
