9
0 1
Si 1.8795240000 -0.3648500000 0.0000160000
Si -0.1300100000 0.8665890000 0.0000080000
H 1.9611850000 -1.2185330000 1.2078910000
H 3.0193500000 0.5836550000 0.0000440000
H 1.9612150000 -1.2184990000 -1.2078800000
S -1.7668870000 -0.5626780000 -0.0000250000
H -0.2088190000 1.7363340000 -1.1984210000
H -0.2088440000 1.7363090000 1.1984540000
H -2.7470840000 0.3592340000 -0.0000310000
