20
0 1
C -0.6446350000 -1.6161230000 0.0000140000
C 0.7276230000 -1.3955480000 0.0000200000
C 1.2284720000 -0.0899550000 0.0000250000
C -1.5589980000 -0.5576910000 0.0000090000
C -1.0682980000 0.7608260000 0.0000100000
C 0.3144730000 0.9682990000 0.0000230000
H -1.0192520000 -2.6350110000 0.0000200000
H 1.4060100000 -2.2413640000 0.0000250000
P 3.0295030000 0.3278170000 -0.0000030000
C -3.0418990000 -0.8356440000 -0.0000310000
H -3.2402230000 -1.9086940000 0.0003990000
H -3.5322570000 -0.4045520000 -0.8791920000
H -3.5324690000 -0.4037940000 0.8786320000
C -2.0093840000 1.9409630000 0.0000030000
H -2.6624260000 1.9358700000 -0.8790540000
H -1.4573450000 2.8821930000 -0.0002510000
H -2.6620770000 1.9361500000 0.8793260000
H 0.6882960000 1.9876940000 0.0000280000
H 3.4424750000 -0.5581030000 -1.0302670000
H 3.4425990000 -0.5584120000 1.0299450000
