7
0 2
N 0.3670030000 0.5096890000 -0.0274450000
S -1.1493780000 -0.1329080000 0.0033440000
C 1.6018860000 -0.2610080000 0.0047500000
H 0.4577490000 1.5110240000 0.0856530000
H 1.4085130000 -1.2498100000 -0.4089810000
H 1.9759640000 -0.3750220000 1.0292060000
H 2.3674820000 0.2385600000 -0.5957720000
