12
0 1
Si 0.7624700000 -0.5108170000 0.1776070000
O 1.3805470000 0.9717580000 -0.2359350000
H 2.2654090000 1.2046980000 0.0516300000
C -1.0107790000 -0.5416010000 -0.4142970000
C -1.9089990000 0.5430820000 0.2073070000
H -1.5273540000 1.5426370000 -0.0135910000
H -1.9585510000 0.4424610000 1.2955420000
H -2.9315950000 0.4831180000 -0.1759890000
H -1.4129660000 -1.5399290000 -0.1997480000
H -1.0033700000 -0.4492920000 -1.5066450000
H 0.8288250000 -0.7082380000 1.6507840000
H 1.5393180000 -1.6069700000 -0.4590640000
