11
0 1
F 1.6554010000 -1.3891710000 -0.0000170000
B 1.1946340000 -0.1508060000 0.0000390000
F 2.0979010000 0.8261400000 -0.0000300000
C -0.3205080000 0.1985750000 0.0000180000
N -1.0921040000 -0.8322900000 0.0000120000
O -2.4348270000 -0.4807150000 -0.0000040000
H -2.8800230000 -1.3352430000 -0.0000060000
C -0.8223180000 1.6184270000 0.0000090000
H 0.0068730000 2.3244160000 0.0000180000
H -1.4497290000 1.8009370000 0.8770980000
H -1.4497060000 1.8009340000 -0.8770970000
