9
0 1
C 0.0172380000 0.1241580000 -0.0003080000
N 0.1920270000 1.3892100000 0.0111570000
N 0.9913710000 -0.8770780000 0.0783060000
N -1.2703200000 -0.4063080000 -0.0849600000
H 1.9378170000 -0.5486960000 -0.0442010000
H 0.7945950000 -1.6961030000 -0.4814700000
H -1.9677890000 0.3187180000 0.0100030000
H -1.4395380000 -1.1880000000 0.5342270000
H 1.1799340000 1.6283600000 -0.0482350000
