19
0 1
C 0.2583800000 -0.0389060000 -0.2719590000
C -1.2362850000 -0.2038990000 -0.1244830000
C -2.0124420000 -0.5855790000 -1.2238690000
H -1.5447610000 -0.7113220000 -2.1943740000
C -3.3792110000 -0.7954220000 -1.0782060000
H -3.9733900000 -1.0854100000 -1.9371540000
C -3.9856140000 -0.6244720000 0.1663240000
H -5.0518490000 -0.7849570000 0.2770370000
C -3.2192190000 -0.2403860000 1.2633970000
H -3.6868720000 -0.0985600000 2.2308430000
C -1.8491820000 -0.0317090000 1.1229280000
H -1.2572000000 0.2914850000 1.9708030000
N 0.6603760000 1.2277300000 0.3948460000
P 1.0331480000 -1.4989950000 0.6846990000
Cl -0.0257060000 2.6023810000 -0.5417380000
Cl 2.4370480000 1.4033760000 0.3636420000
Cl 2.7171050000 -2.0114890000 -0.4824230000
H 0.1847090000 -2.4280290000 0.0421890000
H 0.5673410000 -0.0726940000 -1.3197280000
