13
0 2
S 2.4836400000 0.1273220000 -0.0000400000
O 0.8893140000 0.5687610000 0.0000070000
C -0.1095820000 -0.4425140000 0.0000440000
O 0.1451790000 -1.6145840000 0.0000140000
N -1.3350240000 0.1370550000 0.0000190000
C -1.5926420000 1.5736370000 0.0000100000
H -2.1720390000 1.8479140000 0.8878710000
H -2.1720200000 1.8479070000 -0.8878650000
H -0.6592980000 2.1250160000 0.0000180000
C -2.5063620000 -0.7311060000 -0.0000000000
H -3.1169400000 -0.5417160000 -0.8889210000
H -3.1169680000 -0.5417150000 0.8889020000
H -2.1802420000 -1.7674540000 0.0000060000
