24
0 1
C 0.4254160000 0.0203270000 0.0000000000
Si -1.4654380000 0.0050600000 -0.0000020000
C -2.0793380000 -0.8975670000 -1.5370710000
H -1.7523250000 -0.3899990000 -2.4492340000
H -3.1728350000 -0.9473140000 -1.5531200000
H -1.7007210000 -1.9233330000 -1.5767110000
C -2.0793420000 -0.8974810000 1.5371160000
H -1.7007230000 -1.9232450000 1.5768150000
H -3.1728390000 -0.9472290000 1.5531630000
H -1.7523340000 -0.3898620000 2.4492510000
C -2.1256890000 1.7690820000 -0.0000530000
H -1.8015850000 2.3248140000 -0.8849350000
H -1.8015880000 2.3248630000 0.8848000000
H -3.2201900000 1.7615200000 -0.0000540000
C 1.1451590000 -1.1872620000 0.0000360000
C 1.1670420000 1.2119730000 -0.0000330000
C 2.5373440000 -1.2061210000 0.0000380000
C 3.2501950000 -0.0081740000 0.0000050000
C 2.5615730000 1.2018050000 -0.0000310000
H 3.1091410000 2.1382720000 -0.0000570000
H 0.6536140000 2.1678890000 -0.0000610000
H 3.0665560000 -2.1530600000 0.0000660000
H 4.3346410000 -0.0191150000 0.0000070000
H 0.6131440000 -2.1345350000 0.0000620000
