13
0 2
S -0.0237750000 -1.4739730000 0.1537540000
C -1.6029590000 -0.7021210000 -0.3593590000
C -1.6404160000 0.6980290000 0.2472240000
H -2.4204330000 -1.3234630000 0.0106020000
H -1.6388260000 -0.6629200000 -1.4491490000
S -0.0029300000 1.4880110000 -0.0190670000
H -1.8338210000 0.6546670000 1.3200490000
H -2.3972330000 1.3226760000 -0.2310410000
C 0.9059030000 -0.0201310000 -0.1517100000
C 2.3940490000 -0.0093500000 -0.0326790000
H 2.7400710000 0.0463560000 1.0103220000
H 2.8163960000 0.8518550000 -0.5596180000
H 2.8216550000 -0.9123490000 -0.4770030000
