12
0 1
Si -0.7138210000 0.9421130000 0.0006000000
Si 0.7138310000 -0.9421380000 0.0006140000
N 2.3451600000 -0.4075040000 0.0004530000
H 0.4888430000 -1.7714540000 -1.2040820000
H 0.4890860000 -1.7712500000 1.2054860000
C 3.4545310000 0.0389620000 -0.0006070000
O 4.5416140000 0.4687360000 -0.0012100000
N -2.3451490000 0.4074770000 0.0007710000
H -0.4890010000 1.7712890000 -1.2042250000
H -0.4889090000 1.7713650000 1.2053440000
C -3.4545280000 -0.0389710000 -0.0003190000
O -4.5416450000 -0.4686560000 -0.0016060000
