19
0 1
Cl 3.9322000000 0.4591080000 0.1299980000
N -0.0978300000 -1.0146450000 -0.0424310000
P 2.4934240000 -1.0660910000 -0.1786020000
C 0.8885270000 -0.1447630000 -0.0689460000
C 0.7068810000 1.2589690000 -0.0868420000
H 1.5624210000 1.9204870000 -0.1115510000
C -0.5772700000 1.7426790000 -0.0617020000
H -0.7656700000 2.8115480000 -0.0714000000
C -3.0259530000 1.2657780000 0.0140670000
H -3.2468230000 2.3280170000 0.0063890000
C -4.0402540000 0.3405800000 0.0554340000
H -5.0733450000 0.6675660000 0.0805070000
C -3.7466110000 -1.0444640000 0.0655460000
H -4.5598150000 -1.7606250000 0.0977660000
C -2.4461410000 -1.4848720000 0.0341480000
H -2.1968820000 -2.5388690000 0.0398740000
C -1.3785600000 -0.5534680000 -0.0080280000
C -1.6722500000 0.8453280000 -0.0182360000
H 2.4659480000 -1.4936640000 1.1718560000
