20
0 1
O 0.4951300000 1.1255710000 0.6355910000
C 1.4263140000 1.4027700000 -0.4043770000
C 2.5080480000 0.3279130000 -0.3336810000
H 1.8173300000 2.4035130000 -0.2127700000
H 0.9401980000 1.3919870000 -1.3880630000
S 1.5671700000 -1.2142330000 -0.0252390000
H 3.2037940000 0.5151490000 0.4850820000
H 3.0573250000 0.2339390000 -1.2710050000
C 0.1025140000 -0.2358180000 0.6265910000
C -1.1584550000 -0.4929050000 -0.1951230000
H -0.0566040000 -0.5140880000 1.6703200000
C -2.3933830000 0.2115800000 0.3813330000
H -1.3286310000 -1.5751770000 -0.2361850000
H -0.9848880000 -0.1717880000 -1.2278170000
C -3.6517430000 -0.0116020000 -0.4618480000
H -2.1831210000 1.2821260000 0.4627650000
H -2.5691160000 -0.1460830000 1.4031570000
H -3.5186830000 0.3683290000 -1.4795390000
H -4.5154030000 0.4991310000 -0.0277960000
H -3.8977300000 -1.0755030000 -0.5364310000
