22
0 1
C -0.8938450000 -1.5781820000 -0.0331380000
C -2.2259980000 -1.9157620000 0.0075130000
C -3.2166820000 -0.9110450000 0.0598250000
C -2.8504060000 0.4125270000 0.0629070000
C -1.4849110000 0.7952060000 0.0173520000
C -0.4755900000 -0.2206280000 -0.0258960000
H -0.1523600000 -2.3675680000 -0.0799900000
H -2.5194490000 -2.9594720000 -0.0028950000
H -4.2642150000 -1.1884710000 0.0937030000
H -3.6058960000 1.1908050000 0.0977390000
C 0.9038760000 0.1686090000 -0.0597480000
C 1.2276120000 1.5086910000 -0.0810220000
C -1.0980180000 2.1609080000 0.0078690000
C 0.2274480000 2.5070750000 -0.0453200000
H -1.8692690000 2.9233990000 0.0388550000
H 0.5198250000 3.5513820000 -0.0579400000
H 2.2711490000 1.7967630000 -0.1247170000
N 3.6234680000 -0.2202400000 0.2158470000
P 2.2274620000 -1.1156310000 -0.1948690000
H 1.9180950000 -1.7728980000 1.0307060000
H 3.7691850000 0.0818120000 1.1697510000
H 4.4758080000 -0.5439970000 -0.2151620000
