13
0 1
C -3.1720260000 -0.3164790000 0.1702870000
C -1.7706460000 0.2009310000 -0.0324660000
H -3.8821770000 0.4318720000 -0.1812380000
H -3.3288950000 -0.4771610000 1.2412880000
H -3.3307360000 -1.2677200000 -0.3392770000
S -0.5360920000 -1.1108290000 -0.1452720000
O -1.5159430000 1.3851690000 -0.1066440000
P 1.3245840000 -0.0104440000 -0.0562410000
O 2.3984210000 -0.8683720000 -0.5445990000
O 1.0314310000 1.3385610000 -0.7971340000
H 0.1202760000 1.6665550000 -0.5905340000
O 1.4485830000 0.4547680000 1.4725300000
H 1.8863460000 -0.2113380000 2.0175710000
