9
0 1
Si 1.0819250000 0.0775370000 0.0000000000
C -0.6841540000 -0.5276580000 0.0000000000
C -1.7460010000 0.2816090000 -0.0000000000
H -0.8613630000 -1.6030600000 0.0000010000
H -1.6436970000 1.3633200000 -0.0000010000
H -2.7642110000 -0.0985890000 -0.0000000000
H 1.0886850000 1.5592490000 -0.0000010000
H 1.8072800000 -0.4150720000 -1.1965470000
H 1.8072790000 -0.4150700000 1.1965480000
