18
0 1
Si 2.4337360000 -0.4581600000 0.4782240000
Si 0.8406140000 0.9189320000 -0.5774740000
H 1.8764500000 -0.9880560000 1.7462580000
H 3.6435880000 0.3378410000 0.8166250000
H 2.8456200000 -1.5781390000 -0.3949690000
N -0.8286210000 0.6055440000 -0.0186080000
H 0.9222860000 0.8205340000 -2.0528130000
H 1.0295050000 2.3473880000 -0.2121560000
C -1.1789570000 -0.7094380000 -0.1646380000
O -0.3501790000 -1.4906810000 -0.6305820000
C -2.5612060000 -1.1623330000 0.2513130000
H -3.3366440000 -0.6134900000 -0.2898830000
H -2.7236280000 -0.9932460000 1.3195300000
H -2.6521360000 -2.2247040000 0.0368140000
C -1.7451340000 1.6141360000 0.5168330000
H -1.2216690000 2.5668570000 0.5830920000
H -2.0932030000 1.3521480000 1.5203110000
H -2.6175040000 1.7544980000 -0.1294430000
