14
0 1
Si 0.8921830000 -1.1159600000 0.6249370000
Si -1.1332130000 -1.3069560000 -0.5900990000
C -2.3416710000 0.0640300000 -0.0229700000
H -1.8376290000 -2.6035970000 -0.3755430000
H -0.9499520000 -1.1173110000 -2.0466780000
S -1.8270070000 1.6145620000 0.1463220000
O -3.6210910000 -0.2338930000 0.2369610000
C 1.9424370000 0.3485320000 -0.0124530000
H 1.6522950000 -2.3705100000 0.4881900000
H 0.5238010000 -0.8776790000 2.0407310000
S 3.5609610000 0.1293240000 -0.1163940000
O 1.3739460000 1.5084540000 -0.3313860000
H -3.7813880000 -1.1776270000 0.0951770000
H 0.3965830000 1.4935190000 -0.2005220000
