14
0 1
Si 0.4351640000 0.0345280000 -0.0064020000
O 1.5388010000 1.2513740000 -0.0203370000
O 0.6374750000 -0.9788630000 1.2853340000
H 2.4417280000 1.0289290000 -0.2605300000
C -1.2299730000 0.8612050000 -0.0253350000
C -2.4187260000 -0.1165200000 -0.0183620000
H -1.2697410000 1.5025460000 -0.9129690000
H -1.2886920000 1.5429440000 0.8318660000
H -2.3890650000 -0.7746890000 -0.8906970000
H -3.3750790000 0.4134000000 -0.0351290000
H -2.4068800000 -0.7526400000 0.8710130000
O 0.6580150000 -0.9512520000 -1.3027510000
H 0.7690010000 -1.8860800000 -1.1150030000
H 0.6443020000 -0.5959810000 2.1652770000
