13
0 1
Cl -0.8108370000 -2.0516510000 -0.0000000000
N 0.4013610000 -0.6723800000 -0.0000000000
C 0.2947310000 0.0643380000 1.1989880000
C 0.2947310000 1.3985750000 1.2365560000
C 0.3267470000 2.2511170000 0.0000000000
C 0.2947310000 1.3985750000 -1.2365560000
C 0.2947310000 0.0643380000 -1.1989880000
H 0.2911120000 -0.5470940000 2.0914800000
H 0.3227750000 1.8859410000 2.2047530000
H 0.3227750000 1.8859410000 -2.2047530000
H 0.2911120000 -0.5470940000 -2.0914800000
H 1.2266850000 2.8844880000 0.0000000000
H -0.5137710000 2.9608930000 0.0000000000
