16
0 2
C 0.4407460000 -0.2391260000 0.0000000000
C -0.7750520000 0.7119860000 -0.0000010000
Si -2.4510990000 -0.1676000000 0.0000010000
C 1.7864100000 0.5010580000 -0.0000010000
H -0.7334840000 1.3698690000 0.8759760000
H -0.7334840000 1.3698660000 -0.8759790000
H 0.3935140000 -0.8967760000 -0.8761680000
H 0.3935140000 -0.8967740000 0.8761700000
C 2.9916270000 -0.4435260000 0.0000000000
H 1.8335930000 1.1580530000 0.8766340000
H 1.8335930000 1.1580510000 -0.8766380000
H 2.9879890000 -1.0901270000 0.8829770000
H 3.9331040000 0.1125120000 -0.0000010000
H 2.9879890000 -1.0901300000 -0.8829750000
H -2.6216690000 -1.0152460000 1.2114360000
H -2.6216700000 -1.0152500000 -1.2114320000
