12
0 1
Si 1.2390830000 -0.9007860000 0.4721290000
Si -0.8420830000 -0.8961930000 -0.6363540000
C -1.7832420000 0.7043400000 -0.0884060000
H -1.6592120000 -2.0712720000 -0.2609260000
H -0.5982850000 -0.8829000000 -2.0994280000
O -2.4540400000 0.7145740000 0.9177010000
H -1.6732970000 1.6268840000 -0.7016880000
C 1.9844690000 0.8360920000 0.0506920000
H 1.1149250000 -0.9919890000 1.9482620000
H 2.1813120000 -1.9575050000 0.0235830000
O 1.3079330000 1.6742420000 -0.5063150000
H 3.0380470000 1.0813700000 0.3245560000
