18
0 1
Cl -2.2638240000 -0.6660480000 -0.0859260000
O -0.7907220000 -0.2120600000 -0.8797230000
C 0.2903840000 0.0830840000 0.0165660000
O 0.5023920000 -1.0267340000 0.7970130000
O 0.0425210000 1.1683790000 0.8144180000
O 1.3393640000 0.3809500000 -0.8445170000
C 1.4265630000 -0.8605380000 1.8808460000
H 1.5967220000 -1.8614180000 2.2740200000
H 1.0035540000 -0.2200470000 2.6554530000
H 2.3706210000 -0.4365490000 1.5274990000
C -0.1713930000 2.4189680000 0.1446020000
H -0.4831810000 3.1150140000 0.9211720000
H -0.9599400000 2.3237230000 -0.6046970000
H 0.7488110000 2.7675970000 -0.3264320000
C 1.7584900000 -0.6616370000 -1.7403040000
H 2.7426160000 -0.3626210000 -2.0982090000
H 1.0672500000 -0.7498390000 -2.5796210000
H 1.8258470000 -1.6165790000 -1.2162370000
