13
0 2
P -0.0616020000 -0.9160300000 -0.6467300000
C -1.3679920000 0.2880280000 0.0234360000
C -2.6925960000 -0.3423780000 0.3959900000
H -3.0630530000 -0.9652290000 -0.4232890000
H -3.4171210000 0.4368320000 0.6354270000
H -2.5542310000 -0.9988700000 1.2609240000
C 1.5047340000 -0.1691960000 0.1128270000
C 1.9154200000 1.2451050000 -0.1918580000
H 2.8282700000 1.4878450000 0.3545880000
H 1.1025330000 1.9284790000 0.0627030000
H 2.0885550000 1.3446720000 -1.2685430000
O 2.1464810000 -0.9342400000 0.7947800000
O -1.1737700000 1.4814090000 0.0848170000
