8
0 1
S -0.4827270000 -0.0346120000 0.1101420000
F 2.0401040000 0.0832580000 0.0166160000
O -0.3972280000 0.9745060000 -1.1462530000
O -0.4933860000 0.7423340000 1.3058830000
O -1.4373650000 -1.0374380000 -0.2255150000
N 1.0020590000 -0.8777900000 0.0455250000
H 1.0539620000 -1.3200530000 -0.8755700000
H -0.0818510000 1.8338490000 -0.8278440000
