9
0 1
F 1.3953410000 -0.5947140000 0.1361290000
O 0.7264270000 0.5909680000 -0.3701810000
C -0.5336740000 0.6248970000 0.2893360000
C -1.4646760000 -0.5053300000 -0.1148960000
H -0.3724470000 0.6680050000 1.3712990000
H -1.6046100000 -0.5193720000 -1.1978320000
H -2.4397940000 -0.3757750000 0.3625440000
H -1.0545050000 -1.4666450000 0.1963550000
H -0.9080290000 1.6010670000 -0.0427180000
