15
0 1
P 1.1602470000 -0.0108250000 -0.7192480000
P -0.9191600000 0.1354370000 -0.0221740000
C 1.8540940000 1.4029270000 0.2690970000
C 1.7300600000 -1.4759280000 0.2740320000
H 1.6825190000 1.2911130000 1.3411810000
H 1.3945690000 2.3311700000 -0.0744650000
H 2.9284630000 1.4609960000 0.0786500000
O -1.6095380000 1.3804810000 -0.3983300000
O -1.6444350000 -1.2028430000 -0.5839850000
H 1.2243910000 -2.3716770000 -0.0909280000
H 1.5347850000 -1.3634020000 1.3410360000
H 2.8032650000 -1.6014820000 0.1091950000
H -2.1040120000 -1.0194630000 -1.4129180000
O -0.8576630000 -0.1966490000 1.5533220000
H -1.6921300000 -0.0063400000 2.0027430000
