9
0 1
Si -1.6922410000 -0.3961870000 -0.0000440000
Si 0.2217030000 0.9847340000 0.0000690000
N 1.8193690000 -0.0180640000 0.0000160000
O 1.6813980000 -1.2206740000 -0.0000650000
H 0.3525970000 1.8430700000 1.2024130000
H 0.3526210000 1.8432340000 -1.2021550000
H -2.9031140000 0.4593290000 -0.0000000000
H -1.7006860000 -1.2468050000 1.2112320000
H -1.7006600000 -1.2466430000 -1.2114340000
