14
0 1
N 0.5750830000 1.4125540000 -0.8261780000
C 1.3651040000 -1.2437690000 -0.0484830000
C -1.6140080000 -0.6575400000 -0.6443540000
Si -0.0086530000 0.0291040000 0.0194260000
H 1.5588240000 -1.5701030000 -1.0752960000
H 1.0930280000 -2.1293700000 0.5328500000
H 2.3015520000 -0.8530110000 0.3617930000
H 1.3829950000 1.3532470000 -1.4265560000
H -0.0292790000 2.1764360000 -1.0905900000
H -1.4863960000 -1.0495880000 -1.6576210000
H -2.3879530000 0.1152300000 -0.6763360000
H -1.9842720000 -1.4678490000 -0.0097440000
O -0.3889720000 0.4434850000 1.5831890000
H 0.2522570000 0.9896570000 2.0442930000
