8
0 2
C -1.2519210000 -0.2546350000 -0.0197080000
C 0.0085200000 0.5193700000 0.0372130000
H -2.1897720000 0.2381940000 -0.2399650000
H -1.2530400000 -1.2870240000 0.3039870000
O 1.1127630000 -0.3771320000 -0.0637890000
H 0.0601820000 1.0863660000 0.9880930000
H 0.0261450000 1.2718850000 -0.7690420000
H 1.9147850000 0.1192220000 0.1222070000
