21
0 1
C 2.0142010000 -0.1290250000 0.4522410000
C 1.1554910000 1.1038120000 0.1383580000
N -0.2558260000 0.8114880000 -0.1230530000
H 1.5510200000 1.5707560000 -0.7684750000
H 1.2844540000 1.8322860000 0.9625960000
O 1.9271480000 -1.1531010000 -0.5203650000
H 1.7866610000 -0.5162400000 1.4548670000
H 3.0575120000 0.1977410000 0.4773240000
H 1.0866200000 -1.6146540000 -0.3916740000
C -0.9761200000 1.9723890000 -0.6304110000
H -0.4883780000 2.3463170000 -1.5337340000
H -1.0264070000 2.7982220000 0.1013020000
H -1.9988980000 1.6942720000 -0.8954380000
C -0.9766510000 0.1133560000 0.9479260000
C -1.8024230000 -1.0267980000 0.3325580000
H -0.2569340000 -0.3169440000 1.6456680000
H -1.6185680000 0.7924360000 1.5293820000
O -1.0050630000 -1.7535410000 -0.5977580000
H -2.6974160000 -0.6299550000 -0.1662390000
H -2.1319520000 -1.7276670000 1.1019870000
H -0.6205990000 -1.0562470000 -1.1552280000
