22
0 1
Si -0.1574610000 -0.8717280000 0.0028950000
C 0.5054470000 0.7841570000 -0.6771930000
N 1.9317430000 0.9987210000 -0.4505720000
C 2.7030380000 0.0167490000 0.0549760000
O 2.2161070000 -1.0812160000 0.3382200000
H 2.3442870000 1.8926580000 -0.6665260000
N -1.9130490000 -0.7137950000 -0.3734270000
H -0.1025740000 -1.0260540000 1.4634960000
H 0.1238320000 -2.0798440000 -0.7931680000
C -2.7277130000 0.2380670000 0.1772680000
O -2.2862290000 1.1391440000 0.8779360000
H -2.3696920000 -1.4186600000 -0.9349860000
C 4.1698340000 0.3069970000 0.2662140000
H 4.4646560000 1.3060710000 -0.0594010000
H 4.7554370000 -0.4367970000 -0.2770850000
H 4.3989830000 0.1930700000 1.3276270000
C -4.2188660000 0.1056510000 -0.0999960000
H -4.4245320000 -0.2712020000 -1.1049960000
H -4.6911120000 1.0777560000 0.0326000000
H -4.6585480000 -0.5914530000 0.6199080000
H -0.0789190000 1.5661850000 -0.1870270000
H 0.2823200000 0.8248300000 -1.7498560000
