15
0 1
C 3.3672640000 0.1043750000 0.0398890000
C 2.5472140000 1.1912690000 -0.2536060000
C 1.1647800000 1.0378650000 -0.3454560000
C 2.8039450000 -1.1540030000 0.2424230000
C 1.4254640000 -1.3249030000 0.1558460000
C 0.6273420000 -0.2254080000 -0.1321000000
H 4.4404080000 0.2371310000 0.1088830000
H 2.9803170000 2.1715350000 -0.4143080000
H 0.5281240000 1.8823690000 -0.5642630000
H 3.4345900000 -2.0057500000 0.4682360000
H 0.9607220000 -2.2915480000 0.3033270000
O -0.7479620000 -0.5155890000 -0.2730400000
C -1.6755490000 0.3326190000 0.1745040000
O -1.5456610000 1.3865130000 0.6983740000
Cl -3.2681130000 -0.3960010000 -0.1525620000
