10
0 1
Si -1.4674040000 0.2387640000 0.0000030000
Si 0.7352660000 -0.6521700000 -0.0000080000
H -1.6930150000 1.0748290000 1.2035250000
H -2.4539800000 -0.8684560000 -0.0000100000
H -1.6930160000 1.0748580000 -1.2034980000
B 1.9567900000 0.9293300000 0.0000110000
H 0.8555650000 -1.5105910000 -1.2062870000
H 0.8555650000 -1.5106200000 1.2062500000
H 2.2974370000 1.4405180000 -1.0209180000
H 2.2974380000 1.4404940000 1.0209520000
