25
0 1
N 2.8303060000 -0.5894230000 0.0000500000
C 0.4582280000 0.3541840000 -0.0004820000
O 0.8935430000 1.4892810000 -0.0000600000
C 3.3439610000 0.0214380000 1.2198470000
H 2.9854670000 -0.5409130000 2.0873880000
H 3.0564510000 1.0747300000 1.3454650000
H 4.4363620000 -0.0403460000 1.2162460000
C 3.3444260000 0.0212440000 -1.2196500000
H 2.9862580000 -0.5412440000 -2.0872370000
H 4.4368260000 -0.0405490000 -1.2156250000
H 3.0569710000 1.0745160000 -1.3455450000
C 1.4105100000 -0.8564260000 -0.0001960000
H 1.1681130000 -1.4727160000 -0.8755840000
H 1.1677840000 -1.4725970000 0.8751870000
C -1.0242540000 0.1037590000 -0.0002010000
C -1.5821450000 -1.1817580000 -0.0001340000
C -1.8779860000 1.2151930000 -0.0000010000
C -3.2562550000 1.0473130000 0.0002480000
C -2.9645480000 -1.3495240000 0.0001140000
C -3.8026490000 -0.2368870000 0.0003060000
H -0.9467980000 -2.0586350000 -0.0002780000
H -3.3868480000 -2.3479130000 0.0001590000
H -4.8788280000 -0.3693560000 0.0005010000
H -1.4304540000 2.2014580000 -0.0000550000
H -3.9075230000 1.9140550000 0.0003980000
