21
0 1
O 0.4341800000 -0.7467410000 -0.3713080000
Si 1.8722230000 -0.0057470000 0.0104490000
C -0.8680790000 -0.3517860000 -0.2034350000
O 2.0831060000 1.4101130000 -0.7896580000
C -1.8287940000 -1.3462490000 -0.0105860000
C -1.2509100000 0.9913710000 -0.2474660000
C -2.5937830000 1.3284850000 -0.0884580000
C -3.5566580000 0.3416700000 0.1081240000
C -3.1664660000 -0.9965510000 0.1430920000
H -3.9067080000 -1.7747360000 0.2926140000
H -1.5095630000 -2.3812020000 0.0148740000
H -2.8849990000 2.3724650000 -0.1233000000
H -4.5992750000 0.6109210000 0.2291230000
H -0.5036770000 1.7565030000 -0.4210730000
C 1.9699650000 0.3845950000 1.8141720000
H 1.7946260000 -0.5111600000 2.4150700000
H 1.2239210000 1.1332100000 2.0926110000
H 2.9568650000 0.7804660000 2.0662600000
H 2.2759150000 1.3698210000 -1.7298930000
O 2.9884780000 -1.0909620000 -0.5061840000
H 2.6640080000 -1.9643140000 -0.7380210000
