14
0 1
Si -0.4532740000 0.0374110000 0.3064670000
N -1.3013120000 -1.4119160000 -0.5191740000
N -0.9079200000 1.4529320000 -0.8394880000
P 1.7939000000 -0.2837820000 0.1624890000
Cl -1.2972220000 0.4178460000 2.1015010000
O 2.0217610000 -0.4199770000 -1.4125620000
O -1.9984160000 1.4992160000 -1.3744200000
O -2.3569650000 -1.8739560000 -0.1502860000
O -0.0146140000 2.2977100000 -0.9553360000
O -0.6348140000 -1.8094250000 -1.4857730000
O 2.2090480000 -1.3680760000 1.0471120000
H 1.5734650000 -1.1921790000 -1.7921410000
O 2.4298330000 1.1376210000 0.4569870000
H 2.1345990000 1.8297750000 -0.1563900000
