8
0 1
C 1.0035170000 -0.1153480000 0.0560750000
O 1.8007820000 -0.8718950000 -0.4300870000
C -0.3108450000 -0.5509150000 0.6743310000
O 1.1853150000 1.2149860000 0.1466660000
Cl -1.7242220000 0.0969840000 -0.2457180000
H -0.3971250000 -0.1772200000 1.6932780000
H -0.3683790000 -1.6342000000 0.6474750000
H 2.0324780000 1.4155420000 -0.2786090000
