19
0 1
Si 2.3600480000 -0.1171680000 0.5256100000
S 1.0564920000 -0.9947880000 -0.9688840000
C -0.5468820000 -0.4030920000 -0.3902910000
C -1.2273320000 -1.0817820000 0.6254390000
C -2.4861880000 -0.6465770000 1.0329550000
C -1.1435580000 0.7038350000 -1.0014410000
C -2.4053020000 1.1310330000 -0.5924080000
C -3.0779710000 0.4596650000 0.4263020000
H -4.0595320000 0.7935900000 0.7426220000
H -3.0065800000 -1.1779620000 1.8219260000
H -0.7712960000 -1.9489690000 1.0871880000
H -0.6203760000 1.2209460000 -1.7965210000
H -2.8617540000 1.9892360000 -1.0728760000
C 2.3356570000 1.7561310000 0.5239030000
H 2.6605440000 2.1514210000 -0.4414940000
H 3.0086920000 2.1389980000 1.2978030000
H 1.3317040000 2.1345270000 0.7313010000
H 3.6986040000 -0.6361120000 0.1600970000
H 1.9849100000 -0.6239910000 1.8668130000
