17
0 1
C 2.8297100000 -0.2812590000 0.0091470000
C 2.1543020000 0.9291340000 0.0117680000
C 0.7493290000 0.9814780000 -0.0035660000
C 2.1297590000 -1.4874730000 -0.0110040000
C 0.7419570000 -1.4561930000 -0.0232870000
C 0.0462590000 -0.2458990000 -0.0181650000
H 3.9140720000 -0.2822050000 0.0192700000
H 2.7105910000 1.8607930000 0.0270200000
N 0.1052710000 2.2043380000 0.0535110000
H 0.6673650000 3.0058070000 -0.1863710000
H 0.1777090000 -2.3793770000 -0.0381930000
H -0.8359060000 2.2522210000 -0.3033890000
H 2.6555090000 -2.4338050000 -0.0165350000
C -1.4512330000 -0.2561290000 0.0083990000
F -1.9711900000 -1.4881960000 -0.1434060000
F -1.9546880000 0.2444540000 1.1629270000
F -1.9882040000 0.5153260000 -0.9879800000
