17
0 1
Si 0.9148830000 0.0504650000 -0.0065100000
O 1.8781710000 1.3812360000 -0.0148460000
O 1.2393210000 -0.9486090000 1.2714710000
H 2.7985270000 1.2600950000 -0.2614870000
C -0.8309090000 0.6896910000 -0.0036500000
C -1.9128810000 -0.4062960000 -0.0025070000
H -0.9492590000 1.3342350000 -0.8833290000
H -0.9600450000 1.3504110000 0.8636810000
C -3.3395150000 0.1510440000 -0.0135320000
H -1.7799810000 -1.0497830000 0.8744350000
H -1.7684180000 -1.0530020000 -0.8747620000
H -3.5260630000 0.7756790000 0.8658490000
H -4.0826190000 -0.6517040000 -0.0160020000
H -3.5132960000 0.7693730000 -0.8996230000
H 1.2040710000 -0.5785530000 2.1562250000
O 1.2354170000 -0.8900980000 -1.3160930000
H 1.4452720000 -1.8101290000 -1.1399710000
