45
0 1
C -1.5459720000 1.5196520000 -1.6056200000
H -1.4878520000 1.3268550000 -2.6775640000
H -1.0015530000 -0.5738500000 -1.3420760000
C 1.3393580000 -0.1140340000 -0.1690570000
C 0.9212620000 0.4927900000 3.4099300000
B 4.0438380000 -1.3797050000 -0.7150420000
C 3.6099420000 -1.0529300000 -2.1926770000
H 4.3964000000 -1.3097340000 -2.9056850000
C 5.0209570000 -2.5607650000 -0.3894140000
H 5.0854830000 -2.7742980000 0.6784180000
C 0.4980200000 2.1675870000 -0.8120520000
O 1.4565620000 2.8599580000 -0.6403650000
H -1.7919820000 1.0965560000 1.0890280000
C -3.1286060000 -0.4099050000 0.3437100000
C -5.5282150000 -0.1253250000 0.2651140000
C -4.5620450000 -2.2546230000 -0.2752030000
H -2.4248180000 -2.3762330000 -0.1512810000
H -6.6720990000 -1.8504840000 -0.3028480000
H -4.1450130000 1.4201190000 0.8109630000
H -2.5595670000 1.8086630000 -1.3400410000
C -1.0122130000 0.3545810000 -0.7747490000
N 0.3630890000 0.8031440000 -0.5537060000
C 2.7017300000 0.4181040000 0.2666050000
O 3.6121480000 -0.6518380000 0.3571660000
C 1.9754970000 0.1654410000 2.6767470000
C 2.5989130000 1.0658180000 1.6548370000
O 1.0642840000 -1.2881320000 -0.1549630000
H 3.3119180000 -0.0172890000 -2.3741800000
H 2.7481010000 -1.6832560000 -2.4405630000
H 6.0276880000 -2.3175340000 -0.7488580000
H 4.7283160000 -3.4740700000 -0.9162560000
O -0.6695340000 2.6187920000 -1.3032800000
C -1.7449900000 0.1438270000 0.5546530000
H -1.1502330000 -0.5398050000 1.1620550000
C -4.2581300000 0.3880360000 0.4963930000
C -5.6828120000 -1.4473900000 -0.1238840000
C -3.2963150000 -1.7390570000 -0.0427670000
H -4.6756490000 -3.2908780000 -0.5701620000
H -6.3971450000 0.5089260000 0.3932170000
H 0.5035170000 -0.1901410000 4.1398100000
H 0.4433230000 1.4629300000 3.3139680000
H 3.6253660000 1.3068610000 1.9448660000
H 2.0523770000 2.0051340000 1.5761460000
H 2.4321000000 -0.8129600000 2.7920610000
H 3.0445630000 1.1699260000 -0.4437230000
