26
-1 1
C 2.1883450000 0.1884570000 0.8987300000
O 1.9922180000 -0.4548210000 1.8935690000
O 2.2886800000 1.5255580000 0.8970430000
C 2.2895950000 -0.3901330000 -0.4824160000
C 2.2240880000 0.4777220000 -1.6993270000
H 2.1827090000 -0.1423490000 -2.5935530000
H 1.3389860000 1.1096160000 -1.6423680000
H 3.1037270000 1.1138600000 -1.7442620000
Cl 4.7065140000 -0.3356420000 -0.1780920000
H 2.5098230000 -1.4358940000 -0.5248420000
O 0.4302660000 -1.0483220000 -0.5824510000
C -0.5908660000 -0.3585090000 -0.3123400000
O -0.5794220000 0.8324200000 0.0577350000
C -1.9198260000 -1.0860380000 -0.4886760000
C -3.0699700000 -0.6089660000 0.4098980000
H -1.7487120000 -2.1418340000 -0.2840250000
H -2.2001200000 -1.0051480000 -1.5452020000
N -4.0366680000 -1.6882980000 0.5516030000
C -3.7248840000 0.7012560000 -0.0723830000
H -2.6539820000 -0.3962630000 1.4005160000
O -4.9159930000 0.7736300000 -0.2715230000
O -2.9240270000 1.7355170000 -0.2196270000
H -1.9555930000 1.4651360000 -0.0560160000
H 2.1696150000 1.8070370000 1.8122690000
H -4.8717980000 -1.3214680000 0.9960430000
H -4.3413910000 -1.9832870000 -0.3711120000
