21
0 1
C 0.5225200000 -1.1802470000 -0.1154410000
C 0.3420290000 -0.8754060000 1.3467770000
C 0.4927350000 1.1694340000 0.2444090000
C 0.3262110000 0.4374990000 1.5485500000
S 1.7642400000 0.1194270000 -0.6466130000
C -2.6266510000 -0.1707930000 0.3599300000
C -0.7098910000 -0.6590290000 -0.8928100000
C -0.7103600000 0.8837160000 -0.6868460000
C -2.1041910000 1.1851520000 -0.1179700000
H -2.4345940000 -0.3217910000 1.4242660000
H -2.7441020000 1.5821580000 -0.9068730000
H -2.0763360000 1.9187470000 0.6889680000
H -3.6930450000 -0.3037050000 0.1746300000
O 3.0266720000 -0.0037020000 0.1402320000
O -1.9379820000 -1.1598350000 -0.4023260000
H 0.2050240000 -1.6408390000 2.0969830000
H 0.1839640000 0.9358230000 2.4972860000
H -0.6399020000 -0.9426320000 -1.9437050000
H 0.8376190000 -2.1865770000 -0.3754330000
H -0.5598500000 1.4007470000 -1.6342390000
H 0.7894390000 2.2135820000 0.3010860000
