20
0 1
C -4.2814950000 -0.7383020000 0.0142180000
C -3.1598320000 -0.0991790000 0.0050130000
C -4.3875880000 0.7619110000 0.0150810000
H -4.8325770000 -1.6612260000 0.0185720000
C -1.7169280000 -0.0731510000 -0.0069040000
C -1.0423840000 1.1464460000 -0.0155650000
C -0.9799540000 -1.2607270000 -0.0130020000
C 0.3424070000 1.1842260000 -0.0285840000
H -1.6143560000 2.0657330000 -0.0142740000
C 0.4006990000 -1.2269740000 -0.0264580000
H -1.5010580000 -2.2099130000 -0.0099220000
C 1.0611600000 -0.0021980000 -0.0354860000
H 0.8633560000 2.1324460000 -0.0410620000
H 0.9699980000 -2.1473920000 -0.0379580000
C 2.5585990000 0.0276560000 0.0015830000
F 3.1016310000 -0.9983540000 -0.6777670000
F 3.0589570000 1.1603100000 -0.5202350000
F 3.0294980000 -0.0569090000 1.2635910000
H -4.6745610000 1.2783800000 0.9309110000
H -4.6896780000 1.2782960000 -0.8959390000
