22
0 2
C 2.1881180000 -0.1827360000 0.0666470000
C 1.3416120000 -0.1114990000 -1.1677850000
C -0.0456250000 0.3931620000 -0.7959010000
O -0.2987280000 1.5526530000 -0.5998210000
C -2.6614010000 0.0686910000 0.0174070000
C -2.5759820000 0.3933020000 1.4996880000
C 2.7152430000 1.0892710000 0.6330870000
C 2.1186910000 -1.3962690000 0.9281440000
H 1.7537040000 0.6068460000 -1.8812280000
H -3.5423880000 -0.5311790000 -0.2130380000
H -2.6985110000 0.9770670000 -0.5827700000
H -2.5251460000 -0.5152290000 2.1020010000
H -3.4574480000 0.9600820000 1.8098660000
H -1.6952900000 1.0004620000 1.7096110000
H 3.0889160000 1.7549210000 -0.1492040000
H 3.5207660000 0.9022280000 1.3468230000
H 1.9309670000 1.6500480000 1.1635940000
H 1.9625040000 -2.3040080000 0.3407240000
H 1.2881990000 -1.3407770000 1.6484630000
H 3.0345800000 -1.5154440000 1.5129660000
H 1.2638650000 -1.0902430000 -1.6467830000
S -1.2511770000 -0.9062200000 -0.5906370000
