24
0 1
N 0.0198360000 1.0484640000 0.0358100000
C 1.3678350000 0.6615170000 -0.2181130000
C 1.6323440000 -0.6407580000 -0.0767420000
S 0.1975390000 -1.5555060000 0.4684950000
C -0.7926310000 -0.1147290000 0.0976350000
C 2.3276830000 1.7351310000 -0.6149290000
H 1.9210330000 2.3135500000 -1.4476680000
H 3.2843770000 1.3172000000 -0.9216630000
H 2.5206320000 2.4288300000 0.2074880000
C 2.9023130000 -1.3908760000 -0.2904550000
H 3.7281440000 -0.7172230000 -0.5156190000
H 2.8091690000 -2.1046580000 -1.1130280000
H 3.1693080000 -1.9581020000 0.6056240000
C -0.1448240000 1.9953380000 1.1436010000
H 0.2114800000 1.5814590000 2.0957450000
H -1.1975380000 2.2508790000 1.2447630000
H 0.4035580000 2.9118530000 0.9271470000
C -2.0855480000 -0.1704130000 -0.2227960000
C -2.9053460000 0.9967360000 -0.6449320000
H -3.5936820000 1.3097250000 0.1455640000
H -3.5064950000 0.7177170000 -1.5126860000
H -2.2622980000 1.8355210000 -0.9078540000
O -2.8003180000 -1.3353660000 -0.1824990000
H -2.1955660000 -2.0866570000 -0.1340390000
