37
0 1
C -1.9711910000 -0.3468180000 -1.2324110000
C -0.7560320000 0.3654430000 0.9714130000
C -2.2255150000 1.1433530000 -1.5529980000
H -1.4620020000 1.4588910000 -2.2706320000
H -3.1923210000 1.2502540000 -2.0596190000
H 0.1515150000 0.3563980000 1.5825780000
H -1.9179030000 -0.8691540000 -2.1940550000
H 0.2992870000 0.1162840000 -1.1752970000
C -1.0330660000 1.8470670000 0.6362620000
H -0.1110340000 2.2518620000 0.2093140000
H -1.2240410000 2.4123990000 1.5563960000
B -0.5526940000 -0.3358090000 -0.4509200000
C 0.8765540000 -1.6481080000 -0.2588310000
C 2.1477060000 -1.4064240000 -0.0673180000
H 2.7888750000 -2.2682410000 0.0818830000
C -0.2917110000 -2.2730590000 -0.3419130000
H -0.6526040000 -2.6543660000 -1.2883240000
H -0.8122550000 -2.5761410000 0.5566510000
C 2.8271640000 -0.0914410000 -0.0372200000
O 2.3237730000 0.9968530000 -0.0479590000
O 4.1567370000 -0.2922950000 0.0185350000
C 4.9567660000 0.8925610000 0.0633270000
H 4.7047370000 1.4871870000 0.9411900000
H 5.9861850000 0.5488100000 0.1145370000
H 4.7957030000 1.4931110000 -0.8316910000
C -1.8708020000 -0.3146170000 1.7848370000
H -1.5075700000 -1.2948010000 2.1203890000
H -2.0575970000 0.2469920000 2.7077200000
C -3.0951270000 -0.9916320000 -0.4049540000
H -2.9477840000 -2.0778540000 -0.4032380000
H -4.0588610000 -0.8320050000 -0.9026100000
C -2.1911580000 2.0933350000 -0.3446970000
H -3.1417000000 2.0389140000 0.1867760000
H -2.1264110000 3.1218410000 -0.7131590000
C -3.2083460000 -0.5023240000 1.0495260000
H -3.8269580000 -1.2091870000 1.6117010000
H -3.7593370000 0.4373740000 1.0693430000
