38
0 1
C -0.0142850000 -0.1125110000 2.0164720000
C -1.9200390000 -0.3706310000 0.6022990000
C 0.5004110000 1.0530050000 1.2013000000
C -1.5800440000 0.7559340000 -0.0652340000
C -2.6010220000 1.0096160000 -1.1326940000
C -1.1232280000 -0.7948820000 1.7268010000
C -3.1451300000 -0.8993490000 0.0411090000
C 1.8892780000 0.7908290000 0.5679770000
C 2.9495530000 0.6851350000 1.6739360000
H 2.8368480000 -0.2249720000 2.2661320000
H 2.8881490000 1.5348550000 2.3617300000
H 2.1383590000 1.6887820000 -0.0119900000
H 3.9579410000 0.6783030000 1.2576750000
N -0.4977270000 1.4979090000 0.2002140000
C -0.2290670000 2.7344710000 -0.5018190000
H 0.2136760000 3.4533290000 0.1915940000
H 0.4603280000 2.5983510000 -1.3403250000
H -1.1555150000 3.1625720000 -0.8827430000
O -3.7983680000 -1.8593900000 0.3313840000
O -3.5226680000 -0.0614180000 -1.0030940000
H -2.1622960000 0.9925990000 -2.1340570000
H -3.1316590000 1.9553460000 -0.9929290000
Si 2.0656930000 -0.6473410000 -0.6786120000
C 0.7367120000 -0.6144390000 -2.0059740000
C 3.7304330000 -0.3945080000 -1.5194210000
C 2.0552360000 -2.3194090000 0.1698630000
H 1.0009920000 -1.3152050000 -2.8024170000
H -0.2353670000 -0.9166700000 -1.6143730000
H 0.6357810000 0.3729600000 -2.4637160000
H 3.7906020000 0.5823780000 -2.0070550000
H 4.5629350000 -0.4669710000 -0.8159830000
H 3.8878350000 -1.1547010000 -2.2890160000
H 2.8192710000 -2.3859350000 0.9479490000
H 1.0881270000 -2.5288820000 0.6284350000
H 2.2604320000 -3.1091040000 -0.5580540000
H 0.6398470000 1.9073400000 1.8830220000
H 0.5884300000 -0.3835580000 2.8735770000
H -1.4448930000 -1.6365030000 2.3276050000
