15
0 2
C -0.4234690000 -1.1988010000 -0.1864110000
C 0.3974860000 -0.0558150000 0.4102790000
S 2.1345370000 -0.0038380000 -0.0581050000
C -1.8696690000 -0.7481850000 0.0538660000
C -1.8381880000 0.7966470000 -0.0482720000
C -0.3463820000 1.1964610000 -0.0979920000
H -0.1928180000 -2.1669190000 0.2605080000
H -0.2074940000 -1.2654860000 -1.2562030000
H 0.3354890000 -0.0805910000 1.5017190000
H -2.1930630000 -1.0532340000 1.0517270000
H -2.5628750000 -1.2005160000 -0.6563380000
H -2.3330300000 1.2520150000 0.8108650000
H -2.3588480000 1.1528410000 -0.9380530000
H -0.1165990000 2.0817630000 0.4945710000
H -0.0420270000 1.3996830000 -1.1279410000
