39
0 1
C -2.8465730000 -0.3780330000 -1.0461030000
C -1.6895920000 0.6028440000 -1.3955940000
C -0.4472430000 -0.6896590000 1.1535090000
H -3.3118340000 -0.7082970000 -1.9783340000
C -1.6522180000 1.8335030000 -0.4610370000
H -0.7370100000 2.4066950000 -0.6460710000
H -2.4772840000 2.4950130000 -0.7481570000
H 0.1631730000 -1.1745400000 1.9219280000
H -1.8958840000 0.9952840000 -2.3951990000
H 0.1506910000 -0.4789640000 -2.4973440000
C -1.7825860000 1.5618630000 1.0343480000
H -1.8316910000 2.5254910000 1.5513560000
H -2.7447400000 1.0810910000 1.2307400000
C -0.6716460000 0.7394110000 1.6790140000
H 0.2671320000 1.2981570000 1.6189580000
H -0.8995610000 0.6629950000 2.7477230000
C -1.7657780000 -1.5031980000 1.0873690000
H -1.5582210000 -2.5194850000 1.4362200000
C -2.4483390000 -1.6473630000 -0.2788910000
H -1.8004310000 -2.2505810000 -0.9258070000
H -3.3483170000 -2.2536710000 -0.1355390000
H -2.4764830000 -1.0871900000 1.8091060000
H -3.6292320000 0.1579540000 -0.4997430000
C 0.3451760000 -0.7588600000 -0.1672070000
H 0.5906600000 -1.8112320000 -0.3849040000
Si 2.1254980000 -0.0654820000 -0.1150670000
C 2.2196390000 1.7653110000 -0.5436770000
H 1.6826650000 2.3926090000 0.1700910000
H 3.2620230000 2.0957200000 -0.5536450000
H 1.8063300000 1.9626840000 -1.5366600000
C 3.1485340000 -1.0101360000 -1.3753230000
H 4.1761990000 -0.6380390000 -1.3988190000
H 3.1879070000 -2.0760620000 -1.1367220000
H 2.7346170000 -0.9094040000 -2.3808410000
C 2.8591200000 -0.3400730000 1.5933350000
H 2.8348730000 -1.3978030000 1.8676200000
H 3.9038810000 -0.0179940000 1.6108050000
H 2.3283000000 0.2167140000 2.3680360000
B -0.3491410000 -0.2208100000 -1.4364620000
