11
0 1
C -0.7459460000 0.2687670000 -0.0046980000
O -0.6266950000 1.4650260000 -0.0049140000
C -2.0783090000 -0.4343480000 0.0052760000
H -2.5868530000 -0.1945750000 0.9408570000
H -1.9824200000 -1.5154700000 -0.0865670000
H -2.6832990000 -0.0457600000 -0.8147950000
S 0.6568370000 -0.8269380000 -0.0048110000
C 1.9879670000 0.3961780000 0.0074410000
H 1.9235790000 1.0300730000 -0.8739320000
H 2.9247130000 -0.1582760000 0.0003290000
H 1.9261700000 1.0112360000 0.9022870000
