23
0 2
C 3.2008380000 0.4016520000 -0.0509260000
C 2.7771690000 -0.8518850000 0.6336000000
C 2.1929840000 1.4789160000 -0.2558470000
C 1.4251700000 -1.3669060000 0.1203860000
C 0.3934080000 -0.2412510000 0.1088210000
C 0.8522200000 0.9267690000 -0.7591840000
C -2.3263830000 0.2778130000 0.2647220000
C -3.7739880000 0.0379070000 -0.0778110000
O -1.9535280000 1.1956070000 0.9470220000
H 2.6819180000 -0.6655950000 1.7173020000
H 3.5368820000 -1.6299910000 0.5294130000
H 2.5676680000 2.2384220000 -0.9458700000
H 2.0101560000 2.0015970000 0.6985630000
H 1.0766100000 -2.1930070000 0.7440690000
H 1.5485860000 -1.7561190000 -0.8954820000
H 0.2156990000 0.1130210000 1.1270300000
H 0.0971690000 1.7138450000 -0.7510950000
H 0.9612690000 0.5794530000 -1.7911420000
H -4.3785700000 0.2016680000 0.8141620000
H -3.9482100000 -0.9621000000 -0.4730450000
H -4.0723910000 0.7717780000 -0.8297830000
S -1.2108120000 -0.9111550000 -0.4539800000
H 4.2559190000 0.6225530000 -0.1591910000
