15
0 1
C 1.9346420000 0.0001050000 0.8393080000
C 0.4804190000 0.0000600000 0.5007900000
C -0.2066430000 1.1994610000 0.3375180000
C -0.2065940000 -1.1993840000 0.3376190000
H 0.3198110000 2.1392810000 0.4570120000
C -1.5553100000 1.2097740000 0.0182250000
C -1.5552590000 -1.2097790000 0.0183260000
C -2.2019450000 -0.0000220000 -0.1352940000
H 0.3199010000 -2.1391720000 0.4571910000
H -2.1049130000 2.1327890000 -0.1104080000
H -2.1048240000 -2.1328270000 -0.1102300000
F -3.5137870000 -0.0000630000 -0.4428440000
H 2.2198130000 -0.8865470000 1.3990750000
H 2.2198040000 0.8868910000 1.3988670000
Cl 2.9775670000 -0.0000670000 -0.6473450000
