23
0 2
C -3.0043200000 0.1428780000 -0.9011640000
S -2.4517840000 -1.2042190000 0.1795470000
C -0.6371810000 -1.0928690000 -0.0070460000
C -0.0234720000 0.1391940000 0.5990170000
C -0.2236780000 0.3793720000 2.0693640000
C 0.0469680000 1.3108950000 -0.3069240000
O 0.1866150000 2.4797890000 0.3443140000
O 0.0327530000 1.2467480000 -1.5136040000
S 2.8179220000 -0.5873940000 0.4480670000
C 2.7432810000 -0.9516400000 -1.3304800000
H -2.8059010000 1.1222720000 -0.4674220000
H -2.5327240000 0.0736990000 -1.8799830000
H -4.0814680000 0.0235950000 -1.0117360000
H -0.0681870000 -0.5471310000 2.6244090000
H -1.2451830000 0.7144570000 2.2665340000
H 0.4601620000 1.1398170000 2.4427470000
H -0.2601990000 -1.9798000000 0.5040670000
H -0.3857170000 -1.1669370000 -1.0636020000
H 2.2690070000 -0.1353490000 -1.8731810000
H 3.7725190000 -1.0474970000 -1.6767910000
H 2.2194140000 -1.8856210000 -1.5263300000
H 1.3409630000 -0.1935170000 0.5633580000
H 0.2945660000 3.1685350000 -0.3261680000
