52
0 1
C -0.9950730000 -2.7736590000 -0.4806420000
C -0.1848260000 -1.5734620000 -1.0544030000
C -2.4096760000 0.0249170000 0.4012600000
H -0.2949020000 -3.5828050000 -0.2592410000
C -0.8798330000 -0.9066190000 -2.2632170000
H -0.3677760000 0.0295940000 -2.5120170000
H -0.7358340000 -1.5604430000 -3.1302200000
H -3.0232580000 0.6992440000 1.0052420000
H 0.7503050000 -1.9863480000 -1.4419220000
C -2.3765070000 -0.6436640000 -2.1313890000
H -2.7436260000 -0.2714900000 -3.0931050000
H -2.8953100000 -1.5928280000 -1.9733210000
C -2.8022090000 0.3448800000 -1.0514430000
H -2.4375910000 1.3403270000 -1.3158840000
H -3.8948770000 0.4159200000 -1.0835970000
C -2.8441170000 -1.4044920000 0.8120640000
H -3.2397130000 -1.3614720000 1.8315530000
C -1.7826390000 -2.5086220000 0.8089490000
H -1.0667140000 -2.3022990000 1.6101460000
H -2.2745860000 -3.4412030000 1.1030920000
H -3.6898090000 -1.7044350000 0.1842120000
H -1.6625470000 -3.1645700000 -1.2546070000
C -0.9335270000 0.3416950000 0.7507420000
H -0.8099420000 0.2595250000 1.8433270000
Si -0.5029460000 2.2033260000 0.5432780000
C 0.0326780000 2.6853510000 -1.1943970000
H -0.7544550000 2.5643080000 -1.9395230000
H 0.3335260000 3.7371280000 -1.2003720000
H 0.8962600000 2.0968480000 -1.5088570000
C 0.8951160000 2.6827260000 1.7068220000
H 0.9444680000 3.7728740000 1.7805000000
H 0.7459930000 2.2945220000 2.7175750000
H 1.8629530000 2.3364550000 1.3414540000
C -2.0131180000 3.2148660000 1.0271560000
H -2.3378110000 2.9823670000 2.0447620000
H -1.7664670000 4.2797010000 0.9955840000
H -2.8622750000 3.0530320000 0.3610100000
B 0.1388790000 -0.5911790000 0.1326860000
C 1.7309520000 -1.9649010000 1.5117860000
C 1.6095990000 -0.6471040000 0.8012480000
C 1.5746350000 -2.1216060000 2.8186570000
H 1.3666330000 -1.2811890000 3.4731340000
H 1.6537460000 -3.0975600000 3.2811880000
C 2.6511580000 -0.5070730000 -0.2678860000
O 3.2231360000 -1.4006000000 -0.8343480000
O 2.8484940000 0.7913100000 -0.5772800000
C 3.7869250000 1.0483330000 -1.6258200000
H 3.4678480000 0.5659280000 -2.5495880000
H 3.8055050000 2.1286940000 -1.7445240000
H 4.7738360000 0.6758400000 -1.3528180000
H 1.7253350000 0.1694750000 1.5120250000
H 1.9476690000 -2.8208860000 0.8815610000
