20
0 2
N -0.5120790000 1.3519520000 0.4807030000
H -0.8426800000 1.3044620000 1.4363070000
C -1.2049180000 0.5281970000 -0.4745550000
H -1.5571680000 1.1576740000 -1.3003110000
C -0.2967920000 -0.5405450000 -1.1040330000
C -2.4181970000 -0.0719940000 0.2390910000
H -0.8335540000 -1.1097640000 -1.8625200000
H 0.5335650000 -0.0378690000 -1.5982900000
S 0.3821100000 -1.7413740000 0.0737790000
O -2.5897110000 0.0763500000 1.4305730000
H 1.2439120000 -0.7648970000 0.9026120000
N -3.2622270000 -0.7817520000 -0.5449540000
H -3.1609650000 -0.8318380000 -1.5438320000
H -4.0814710000 -1.1843700000 -0.1184220000
C 0.4496180000 2.2236230000 0.1074450000
H 0.8565980000 2.8060720000 0.9477990000
O 0.8410910000 2.3523070000 -1.0344510000
O 2.3128500000 -0.0565710000 1.2151310000
N 3.1314190000 -0.2358700000 0.2829690000
O 2.8170110000 -0.9537720000 -0.6340690000
