24
0 1
C -2.2139860000 -1.2038850000 -0.3333600000
C -3.5654810000 -0.9117980000 -0.4141540000
C -4.0444540000 0.3318280000 -0.0165880000
C -3.1475380000 1.2851280000 0.4469500000
C -1.7886040000 1.0100470000 0.4904260000
C -1.2903550000 -0.2416910000 0.0988450000
H -1.8497250000 -2.1877780000 -0.6045580000
H -4.2563020000 -1.6678870000 -0.7702910000
H -5.1047840000 0.5499910000 -0.0576080000
H -3.5081450000 2.2560240000 0.7686170000
H -1.0958380000 1.7628970000 0.8489550000
C 0.1287140000 -0.5636140000 0.1639290000
C 0.9739260000 0.2545470000 -0.4936460000
H 0.7308740000 1.1099240000 -1.1372360000
H 3.1969460000 -0.8556070000 -1.4542330000
P 2.6735890000 -0.1451440000 -0.3523290000
C 3.0046360000 -1.1913170000 1.0714560000
H 2.8718340000 -0.6034080000 1.9793270000
H 2.2507200000 -1.9777520000 1.0727160000
H 4.0155580000 -1.5973200000 1.0253150000
C 3.7420960000 1.3171920000 -0.2793170000
H 3.5633290000 1.9413590000 -1.1556160000
H 3.4931190000 1.8925200000 0.6128270000
H 4.7948360000 1.0355880000 -0.2505240000
