28
0 2
N 0.5673900000 0.0093570000 -0.7376600000
S -0.4797650000 -1.1633870000 -0.2265200000
O -1.3092370000 -0.5077050000 1.0110690000
C -2.4275650000 0.3540590000 0.7180370000
C -1.9871320000 1.7619490000 0.3455660000
H -2.9996880000 0.3611200000 1.6438420000
H -3.0271160000 -0.1021990000 -0.0712180000
C -1.2441420000 1.8510030000 -0.9619060000
H -1.3880720000 2.1784260000 1.1592070000
H -2.8949980000 2.3755900000 0.2836980000
H -0.2488470000 1.0276140000 -0.9405940000
H -1.7863500000 1.4663460000 -1.8250490000
C 1.7559500000 0.4062560000 0.0633060000
C 2.8410570000 -0.6474300000 -0.1995570000
C 1.5059550000 0.5531170000 1.5650730000
C 2.2089320000 1.7436030000 -0.5247830000
H 2.3274970000 1.6679540000 -1.6066430000
H 3.1678630000 2.0277920000 -0.0892170000
H 1.4926710000 2.5373830000 -0.3053210000
H 2.5532650000 -1.6160020000 0.2040740000
H 3.7711580000 -0.3279210000 0.2758000000
H 3.0130300000 -0.7526180000 -1.2714620000
H 1.1976540000 -0.3892220000 2.0160310000
H 0.7373360000 1.2993940000 1.7695070000
H 2.4294980000 0.8771060000 2.0489650000
O 0.2585000000 -2.2473880000 0.3652490000
O -1.4225000000 -1.3734920000 -1.2985230000
H -0.7728250000 2.8112640000 -1.1604400000
