37
0 1
C 1.2626800000 3.7885560000 -0.0866950000
O 0.6801170000 2.4908870000 -0.0651590000
H 0.4661390000 4.4978170000 -0.3053940000
C -0.1461420000 -0.8301460000 -0.5252740000
C 1.0499960000 -0.1232310000 0.0987830000
C -1.4998480000 -0.2016100000 -0.2881520000
C -2.5310290000 -0.4510620000 -1.1914760000
C -1.7759620000 0.5873890000 0.8235250000
C -3.8037360000 0.0616820000 -0.9886290000
C -3.0468170000 1.1048260000 1.0317280000
C 3.4138690000 0.1757590000 0.1410590000
C -4.0670940000 0.8422480000 0.1288500000
C 2.3451640000 -0.7300350000 -0.4586510000
C 2.3977560000 -2.2081630000 -0.2426070000
C 1.2750160000 -2.9050650000 -0.0957490000
C -0.1217020000 -2.3258840000 -0.0790450000
C -0.7567240000 -2.5693010000 1.2952970000
O 2.8313040000 1.4912940000 0.0839630000
B 1.4582830000 1.3962700000 0.0144240000
H -2.3307070000 -1.0547980000 -2.0708480000
H -0.9907170000 0.8147330000 1.5323430000
H -4.5890870000 -0.1431520000 -1.7067150000
H -3.2388660000 1.7207730000 1.9024100000
H 4.3532550000 0.1901440000 -0.4119570000
H 3.6202090000 -0.0770210000 1.1863190000
H -5.0583410000 1.2483780000 0.2906070000
H -1.8161010000 -2.3132170000 1.2956420000
H -0.2637870000 -1.9780600000 2.0706560000
H -0.6594930000 -3.6206470000 1.5752550000
H 2.0374570000 3.8570860000 -0.8522480000
H 1.7062600000 4.0269910000 0.8820850000
H 1.3349650000 -3.9811420000 0.0452560000
H 3.3576930000 -2.7167290000 -0.2541700000
H 0.0143780000 -0.8312260000 -1.6092300000
H -0.7160550000 -2.8898320000 -0.8074740000
H 1.0554820000 -0.3443620000 1.1795950000
H 2.3619760000 -0.5402970000 -1.5424670000
