24
0 1
C 2.5742340000 -0.3483830000 -0.0724840000
C 2.1197880000 0.9945260000 -0.6324920000
C 1.4070580000 -1.2834210000 0.2229570000
C 0.7385510000 1.3760460000 -0.1106370000
C -0.3125430000 0.3772230000 -0.5929650000
C 0.2607840000 -1.0346210000 -0.7531510000
O -1.3561110000 0.3876420000 0.4093870000
C -2.5814980000 -0.0107140000 0.0299070000
C -3.5483580000 0.0562450000 1.1752490000
O -2.8472870000 -0.3717780000 -1.0864500000
H 2.1062350000 0.9383300000 -1.7254630000
H 2.8656460000 1.7451640000 -0.3672540000
H 1.0707400000 -1.0804620000 1.2430800000
H 1.7341240000 -2.3236650000 0.1970900000
H 0.4650050000 2.3874540000 -0.4144460000
H 0.7484050000 1.3658250000 0.9817820000
H -0.7626470000 0.6951160000 -1.5329620000
H 0.6119420000 -1.1548730000 -1.7824410000
H -0.5376860000 -1.7647070000 -0.6238790000
H -3.5712890000 1.0670680000 1.5840290000
H -3.2189550000 -0.6123480000 1.9721730000
H -4.5382230000 -0.2338040000 0.8328850000
F 3.2671010000 -0.1226990000 1.1327790000
H 3.3018730000 -0.8131260000 -0.7414190000
