26
0 1
S -1.4008890000 1.5324480000 0.5298590000
C -2.3703790000 0.5912780000 -0.7196030000
S 0.1521580000 2.3611550000 -0.5624980000
C 1.2707480000 0.9513260000 -0.8652090000
C 1.7073450000 0.1890360000 0.3830610000
H 2.1352280000 1.4023960000 -1.3617650000
H 0.8001090000 0.2676970000 -1.5665710000
C -2.6348370000 -0.8499450000 -0.2648060000
H -1.8176080000 0.6108710000 -1.6560240000
H -3.3277030000 1.0926370000 -0.8470770000
N 2.5302240000 1.0070610000 1.2710080000
C 2.5101230000 -1.0326300000 -0.0774800000
H 0.8201140000 -0.1969500000 0.8900320000
O 2.0184900000 -1.9407790000 -0.7066500000
O 3.7865750000 -0.9993530000 0.2446190000
N -3.4821800000 -0.8696230000 0.9094240000
C -1.3120000000 -1.5849350000 -0.0670210000
H -3.1625640000 -1.3375390000 -1.0893280000
O -0.9155190000 -1.9716690000 1.0023150000
O -0.6242880000 -1.6960330000 -1.2002890000
H 0.2957530000 -2.0089770000 -1.0094810000
H 3.8995850000 -0.1597320000 0.7507060000
H -3.9209230000 -1.7752740000 1.0202890000
H -2.9210360000 -0.7228010000 1.7428060000
H 2.2945450000 0.8501390000 2.2436330000
H 2.3998140000 1.9957110000 1.0883550000
