43
0 1
C -0.1860780000 -0.9018910000 -0.9968710000
C 2.1079010000 -0.6755590000 -0.1318560000
C -0.7251700000 -0.0163670000 -0.0792930000
H -0.4083050000 -0.1409110000 0.9456420000
C 2.0406640000 0.7725630000 0.0334540000
C 1.1090340000 -1.3722130000 -0.8102460000
C 3.3676200000 1.5073120000 0.0247640000
H 1.4337000000 -2.2785360000 -1.3132850000
H -0.7292900000 -1.1680740000 -1.8963700000
C 0.8442790000 2.8475500000 -0.0327730000
C 3.3858420000 -1.3936870000 0.0083000000
C -1.9933970000 0.7264380000 -0.2635120000
H -1.9670860000 1.5847790000 0.4187720000
C -2.2300000000 1.2210340000 -1.6931270000
H -1.3721290000 1.7946450000 -2.0526280000
H -2.3810340000 0.3958180000 -2.3913310000
H -3.1122180000 1.8616030000 -1.7477590000
N 0.9237060000 1.4095400000 0.1127740000
Si -3.4564400000 -0.3227810000 0.3974480000
C -4.9743510000 0.7816170000 0.4438590000
C -3.7616620000 -1.7855620000 -0.7328660000
C -3.0446070000 -0.9152840000 2.1282200000
H -4.0265280000 -1.4691060000 -1.7444180000
H -4.5862250000 -2.3951120000 -0.3540720000
H -2.8784140000 -2.4241820000 -0.7989000000
H -5.2542730000 1.1280920000 -0.5535210000
H -4.8085650000 1.6618070000 1.0703060000
H -5.8307740000 0.2408620000 0.8550300000
H -0.2024640000 3.1211330000 -0.1755020000
H 1.4144890000 3.2381440000 -0.8822270000
H 1.1873420000 3.3553910000 0.8746090000
H -2.7874170000 -0.0819330000 2.7872740000
H -2.2021780000 -1.6105100000 2.1228250000
H -3.8978160000 -1.4344730000 2.5721980000
C 4.6509330000 -0.6148390000 0.3080300000
C 4.3956150000 0.7701100000 0.8750050000
O 3.4554830000 -2.6022920000 -0.1374200000
H 3.7293980000 1.5857130000 -1.0072690000
H 3.2341040000 2.5229100000 0.3944280000
H 4.0235240000 0.6933350000 1.9016040000
H 5.3241600000 1.3436190000 0.9173360000
H 5.2715190000 -1.2289730000 0.9616140000
H 5.1870900000 -0.5328800000 -0.6451850000
