25
0 1
C 0.1126540000 -0.6310630000 -0.5075120000
C -1.0126630000 -1.4640560000 0.0574940000
O -0.3973330000 0.6796590000 -0.5899660000
C -1.6751890000 -0.4917430000 1.0617280000
C -1.2884290000 0.9158780000 0.5289830000
C -2.4373570000 1.7513230000 0.0115150000
H -0.7421410000 1.4800740000 1.2891720000
O 1.1855040000 -0.6864430000 0.4215060000
P 2.5739690000 0.1013510000 0.1598360000
O 3.5585570000 -0.1089680000 1.2150080000
O 2.1247710000 1.5994790000 -0.1033660000
O 3.0110730000 -0.4130590000 -1.3011360000
O -3.2553490000 1.0210040000 -0.8907540000
H -2.0432890000 2.6552140000 -0.4624210000
H -3.0789200000 2.0503060000 0.8406930000
H -2.6948760000 0.6433090000 -1.5799940000
O -3.0547240000 -0.7197000000 1.1972510000
H -1.2365320000 -0.6431260000 2.0465180000
H -3.4999630000 -0.3100610000 0.4374260000
O -1.8769260000 -1.7631670000 -1.0145710000
H -0.6353300000 -2.3682150000 0.5377450000
H -2.6867960000 -2.1312860000 -0.6437520000
H 1.2238510000 1.6670410000 -0.4688230000
H 3.7826780000 -0.9891890000 -1.2770430000
H 0.4430880000 -0.9268100000 -1.5020750000
