14
0 1
C 0.0000010000 0.0000010000 -0.0069630000
C -1.3352460000 0.5781420000 -0.4337950000
C 0.1669270000 -1.4454660000 -0.4336610000
C 1.1683420000 0.8672540000 -0.4337620000
H -2.1532400000 -0.0329740000 -0.0494150000
H -1.4069170000 0.6091270000 -1.5230410000
H -1.4492530000 1.5928510000 -0.0494950000
H -0.6548000000 -2.0515190000 -0.0492330000
H 1.1051990000 -1.8482630000 -0.0493070000
H 0.1758510000 -1.5231450000 -1.5228980000
H 1.0480970000 1.8812350000 -0.0494340000
H 1.2310790000 0.9137870000 -1.5230050000
H 2.1040760000 0.4586270000 -0.0493810000
F -0.0000260000 0.0000760000 1.4126990000
