26
0 1
C 0.3282360000 0.0315710000 -0.6849390000
C 0.2042170000 1.3172060000 0.0791760000
C -0.6524140000 -0.8603850000 -0.7635710000
C -1.9488670000 -0.6565960000 -0.0831470000
O -2.7769580000 -1.6796380000 -0.3216380000
O -2.2383270000 0.2929130000 0.5998450000
O 0.6876540000 1.4754490000 1.1741160000
O -0.4065190000 2.2592530000 -0.6149970000
C -0.6135940000 3.5042390000 0.0682400000
C -4.0632630000 -1.5965790000 0.3013280000
S 1.9274490000 -0.2213470000 -1.4294200000
C 2.6205810000 -1.5536130000 -0.3806080000
C 3.0066480000 -1.1408770000 1.0330760000
O 1.9030450000 -0.9810610000 1.8876980000
H -1.0945910000 4.1550980000 -0.6558550000
H 0.3391470000 3.9198390000 0.3933260000
H -1.2582910000 3.3398880000 0.9307310000
H -3.9545340000 -1.5392960000 1.3839880000
H -4.5862880000 -2.5043540000 0.0142720000
H -4.5979100000 -0.7153370000 -0.0523260000
H 3.5081630000 -1.8708810000 -0.9333980000
H 1.9184110000 -2.3868310000 -0.3547450000
H 3.6262220000 -0.2376470000 0.9991860000
H 3.6157620000 -1.9459610000 1.4552000000
H 1.5256290000 -0.0933550000 1.7832560000
H -0.5213180000 -1.7847410000 -1.3104400000
