33
0 1
C -2.7374450000 1.2147360000 0.2270990000
C -1.5662510000 0.4934640000 0.0377680000
C -1.6071970000 -0.8894540000 -0.1536890000
C -2.8082770000 -1.5651770000 -0.1406790000
C -3.9916060000 -0.8520700000 0.0573310000
C -3.9466520000 0.5225960000 0.2379430000
H -2.7242400000 2.2883370000 0.3630800000
H -2.8360190000 -2.6390920000 -0.2896650000
H -4.9427120000 -1.3694770000 0.0632250000
H -4.8681040000 1.0741300000 0.3833640000
C -0.1963270000 -1.3903240000 -0.3083170000
C 0.5944590000 -0.0900450000 -0.5879870000
H 0.6158020000 0.0635290000 -1.6820970000
N -0.2504760000 0.9660230000 0.0145670000
H -0.0759910000 -2.1203990000 -1.1091110000
C -0.0272750000 2.3176710000 -0.4453040000
H -0.3126340000 2.4480500000 -1.5013440000
H -0.6020950000 3.0207590000 0.1572420000
H 1.0237120000 2.5782580000 -0.3398430000
Si 2.3711690000 -0.1751790000 0.0881900000
C 2.2987530000 -0.2634580000 1.9581710000
H 1.7588040000 0.5971110000 2.3592090000
H 1.7854180000 -1.1633470000 2.3040830000
H 3.3025480000 -0.2675970000 2.3906370000
C 3.4132070000 1.3003730000 -0.4361570000
H 4.4699830000 1.0940820000 -0.2456100000
H 3.3082520000 1.5123750000 -1.5032320000
H 3.1574170000 2.2076670000 0.1146970000
C 3.1456610000 -1.7306440000 -0.6275080000
H 3.1623160000 -1.6997030000 -1.7203020000
H 4.1780720000 -1.8433260000 -0.2868490000
H 2.5998070000 -2.6283950000 -0.3285470000
H 0.1303380000 -1.8686170000 0.6224110000
