22
0 1
C 0.7593710000 -1.1742780000 0.4727850000
C 0.5005660000 -0.4623470000 1.6137970000
C 1.1076670000 1.2391660000 0.1637920000
C 0.7153340000 0.9171590000 1.4443580000
H 1.4760470000 2.2099840000 -0.1397960000
H 0.5043450000 1.6542740000 2.2085040000
H 0.0773390000 -0.9020500000 2.5074360000
H 0.7198150000 -2.2488720000 0.3654210000
S 1.8571570000 -0.2253190000 -0.6390420000
C -2.4676810000 0.5471660000 0.4672900000
C -0.8441920000 -0.4529450000 -1.0160720000
C -0.6413520000 0.9235690000 -1.0625200000
C -1.7610110000 1.6483860000 -0.3322400000
H -2.1358210000 0.5296520000 1.5092220000
H -0.5013740000 -1.1570610000 -1.7602760000
H -0.1549510000 1.3954000000 -1.9064050000
H -2.4368640000 2.0772510000 -1.0776450000
H -1.4061680000 2.4707860000 0.2883080000
H -3.5544900000 0.6199550000 0.4745450000
O 3.2684250000 -0.3687850000 -0.1597780000
C -2.0275630000 -0.7586010000 -0.1800260000
O -2.5620770000 -1.8321970000 -0.0491750000
