19
1 1
C 4.3666970000 -0.6701260000 0.0152990000
C 3.1627620000 -0.0000000000 0.0038580000
C 4.3666970000 0.6701260000 0.0153040000
H 4.9221390000 -1.5957850000 0.0205940000
H 4.9221390000 1.5957850000 0.0206060000
C 1.7480110000 0.0000000000 -0.0086840000
C 1.0536140000 1.2193040000 -0.0159220000
C 1.0536140000 -1.2193040000 -0.0159210000
C -0.3250260000 1.2152370000 -0.0286930000
H 1.5961580000 2.1564650000 -0.0132950000
C -0.3250260000 -1.2152370000 -0.0286910000
H 1.5961580000 -2.1564650000 -0.0132940000
C -1.0034120000 0.0000000000 -0.0343770000
H -0.8783740000 2.1446110000 -0.0414590000
H -0.8783750000 -2.1446110000 -0.0414550000
C -2.5166440000 0.0000000000 0.0019200000
F -2.9427030000 -0.0000050000 1.2713970000
F -3.0157360000 1.0820300000 -0.5999300000
F -3.0157360000 -1.0820250000 -0.5999390000
