14
0 1
S 0.6667756404 2.0543736937 0.1497768532
N -1.6208143283 0.8029235876 -0.0255457086
N 0.2449571822 -0.5242492646 -0.4713312954
C -0.2803359679 0.7522508231 -0.1204862010
H -2.1841744553 -0.0203275565 -0.1168585813
H -2.0547292345 1.6577095697 0.2662196019
H -0.0281871915 -0.7636030309 -1.4152348277
C -0.0786669894 -1.5992778605 0.4590025915
C 0.5126049118 -2.9092093851 -0.0100574372
H 0.3455546245 -1.3217094154 1.4217956074
H -1.1576888336 -1.7300771224 0.6165865407
H 1.5947639032 -2.8506008156 -0.0718051907
H 0.2444809869 -3.7087085329 0.6744280381
H 0.1276497514 -3.1776846901 -0.9929999909
