8
0 1
Cl -3.0055463000 0.0778996000 -0.2213256000
H -1.6873101000 0.2145761000 -0.5134177000
C 0.0445931000 0.1443994000 -0.6344380000
Cl 0.9322718000 -0.0402738000 -2.0524845000
C 0.8312174000 -0.0460224000 0.5861427000
H 1.9142382000 -0.1448977000 0.4986257000
H 0.5586967000 0.7463270000 1.2901543000
H 0.4118392000 -0.9520083000 1.0467430000
