21
0 1
C 21.7676000000 -33.8962000000 -0.9826000000
H 22.2631000000 -34.4128000000 -1.7996000000
C 20.3752000000 -33.8351000000 -0.9010000000
H 19.7551000000 -34.3076000000 -1.6579000000
C 19.8008000000 -33.1528000000 0.1752000000
H 18.7231000000 -33.0782000000 0.2864000000
C 20.6473000000 -32.5616000000 1.1193000000
H 20.2341000000 -32.0250000000 1.9712000000
N 21.9896000000 -32.6133000000 1.0583000000
C 22.5339000000 -33.2705000000 0.0131000000
C 26.1735000000 -32.1848000000 0.0034000000
H 26.7453000000 -31.2614000000 0.0149000000
C 24.7764000000 -32.1403000000 -0.0005000000
H 24.2495000000 -31.1899000000 0.0199000000
C 24.0149000000 -33.3203000000 -0.0280000000
C 24.7064000000 -34.5355000000 -0.0104000000
C 26.0958000000 -34.6100000000 0.0002000000
H 26.5760000000 -35.5834000000 0.0186000000
C 26.8330000000 -33.4208000000 0.0047000000
H 27.9185000000 -33.4638000000 0.0127000000
F 24.0003000000 -35.6901000000 0.0008000000
