14
0 1
C -0.1170000000 -0.0992000000 -0.0782000000
H -0.1676000000 0.4022000000 -1.0516000000
H -0.2136000000 0.6777000000 0.6861000000
C 1.2366000000 -0.8026000000 0.0439000000
H 1.3262000000 -1.5576000000 -0.7422000000
H 1.2886000000 -1.3350000000 0.9988000000
C 2.3866000000 0.1987000000 -0.0590000000
H 2.3583000000 0.7283000000 -1.0170000000
H 3.3542000000 -0.3046000000 0.0192000000
H 2.3280000000 0.9448000000 0.7397000000
C -1.3294000000 -1.0156000000 0.0485000000
H -2.0852000000 -0.8750000000 -0.7263000000
F -1.9491000000 -0.8073000000 1.2565000000
F -0.9692000000 -2.3360000000 0.0306000000
