21
0 1
C 21.8522000000 -32.1101000000 0.5015000000
H 22.4109000000 -31.3277000000 1.0052000000
C 20.4619000000 -32.0322000000 0.4133000000
H 19.9312000000 -31.1796000000 0.8283000000
C 19.7703000000 -33.0853000000 -0.1907000000
H 18.6879000000 -33.0769000000 -0.2788000000
C 20.5111000000 -34.1702000000 -0.6715000000
H 20.0090000000 -35.0188000000 -1.1325000000
N 21.8485000000 -34.2580000000 -0.6003000000
C 22.5179000000 -33.2222000000 -0.0506000000
C 26.1746000000 -32.1888000000 0.0136000000
H 26.7393000000 -31.2613000000 -0.0050000000
C 24.7791000000 -32.1524000000 0.0126000000
H 24.2782000000 -31.1891000000 -0.0193000000
C 23.9952000000 -33.3257000000 0.0426000000
C 24.6975000000 -34.5434000000 -0.0170000000
C 26.0901000000 -34.6021000000 -0.0218000000
H 26.5646000000 -35.5786000000 -0.0430000000
C 26.8362000000 -33.4213000000 -0.0227000000
H 27.9215000000 -33.4675000000 -0.0346000000
F 24.0436000000 -35.7163000000 0.0267000000
