14
0 1
C -0.1192000000 -0.0949000000 -0.0551000000
H -0.1896000000 0.4538000000 -0.9991000000
H -0.2046000000 0.6419000000 0.7522000000
C 1.2342000000 -0.7986000000 0.0667000000
H 1.3130000000 -1.5791000000 -0.6971000000
H 1.2940000000 -1.2998000000 1.0367000000
C 2.3869000000 0.1940000000 -0.0819000000
H 2.3597000000 0.6812000000 -1.0617000000
H 3.3534000000 -0.3073000000 0.0196000000
H 2.3298000000 0.9746000000 0.6839000000
C -1.3251000000 -1.0192000000 0.0254000000
H -2.1602000000 -0.6029000000 0.5929000000
F -1.0088000000 -2.2185000000 0.6001000000
F -1.8042000000 -1.2852000000 -1.2333000000
