17
0 1
C 30.1275000000 -21.0949000000 -0.0154000000
H 30.7105000000 -20.1789000000 -0.0137000000
C 28.7324000000 -21.0802000000 0.0082000000
H 28.1886000000 -20.1395000000 0.0200000000
C 28.0522000000 -22.3021000000 0.0128000000
H 26.9672000000 -22.3439000000 0.0312000000
C 28.8002000000 -23.4844000000 0.0013000000
H 28.3034000000 -24.4524000000 0.0128000000
N 30.1442000000 -23.5203000000 -0.0086000000
C 30.7857000000 -22.3344000000 -0.0300000000
N 32.9646000000 -21.8097000000 0.9968000000
C 34.2911000000 -22.1060000000 0.8453000000
H 35.0116000000 -21.7114000000 1.5528000000
C 34.6020000000 -22.9226000000 -0.2252000000
H 35.5750000000 -23.2792000000 -0.5366000000
S 33.1772000000 -23.3369000000 -1.0735000000
C 32.2579000000 -22.3784000000 0.0318000000
