22
0 1
C 12.8425000000 -32.1539000000 -0.2418000000
H 13.3992000000 -31.2547000000 -0.4938000000
C 11.4459000000 -32.1108000000 -0.1972000000
H 10.9291000000 -31.1762000000 -0.3990000000
C 10.7158000000 -33.2747000000 0.0708000000
H 9.6299000000 -33.2457000000 0.1001000000
C 11.3961000000 -34.4759000000 0.3034000000
H 10.8378000000 -35.3858000000 0.5083000000
C 12.7931000000 -34.5221000000 0.2594000000
H 13.3038000000 -35.4582000000 0.4571000000
C 13.5380000000 -33.3513000000 0.0187000000
C 17.1431000000 -32.2269000000 0.4526000000
H 17.6683000000 -31.3604000000 0.8441000000
C 15.7463000000 -32.2530000000 0.4555000000
H 15.1953000000 -31.4079000000 0.8597000000
C 15.0172000000 -33.3518000000 -0.0460000000
C 15.7778000000 -34.4502000000 -0.4776000000
C 17.1694000000 -34.4536000000 -0.4899000000
H 17.6870000000 -35.3326000000 -0.8620000000
C 17.8599000000 -33.3371000000 -0.0091000000
H 18.9461000000 -33.3340000000 -0.0079000000
F 15.1517000000 -35.5417000000 -0.9764000000
