15
0 1
C 28.2953000000 -17.1239000000 -0.9192000000
N 29.3164000000 -16.8446000000 -0.0103000000
H 29.0251000000 -16.2945000000 0.7895000000
N 30.7458000000 -18.7766000000 0.0036000000
C 32.0843000000 -19.0641000000 -0.0110000000
H 32.4066000000 -20.0987000000 -0.0122000000
C 32.9336000000 -17.9769000000 0.0068000000
H 34.0147000000 -17.9708000000 0.0443000000
S 32.0215000000 -16.5294000000 -0.0071000000
C 30.5628000000 -17.4715000000 0.0181000000
O 27.1807000000 -16.6640000000 -0.7395000000
C 28.6789000000 -17.9751000000 -2.1060000000
H 29.6468000000 -17.6743000000 -2.5155000000
H 27.8993000000 -17.8696000000 -2.8599000000
H 28.7593000000 -19.0196000000 -1.7969000000
