18
0 1
C 30.1880000000 -8.3610000000 -0.0165000000
H 30.7672000000 -7.4421000000 -0.0371000000
C 28.7916000000 -8.3424000000 0.0072000000
H 28.2497000000 -7.4004000000 0.0125000000
C 28.1110000000 -9.5628000000 0.0131000000
H 27.0259000000 -9.6048000000 0.0283000000
C 28.8602000000 -10.7450000000 -0.0016000000
H 28.3623000000 -11.7128000000 0.0019000000
N 30.2038000000 -10.7827000000 -0.0078000000
C 30.8533000000 -9.5983000000 -0.0202000000
C 33.1464000000 -9.2543000000 1.0777000000
H 32.7552000000 -8.8152000000 1.9898000000
C 34.5179000000 -9.5145000000 0.8244000000
H 35.3249000000 -9.2888000000 1.5129000000
C 34.7176000000 -10.1118000000 -0.4077000000
H 35.6547000000 -10.4077000000 -0.8621000000
S 33.2412000000 -10.3515000000 -1.2439000000
C 32.3260000000 -9.6372000000 0.0257000000
