14
0 1
C -0.1311000000 -0.0753000000 -0.0594000000
H -0.2059000000 0.4736000000 -1.0034000000
H -0.2335000000 0.6477000000 0.7569000000
C 1.2160000000 -0.7895000000 0.0639000000
H 1.2867000000 -1.5706000000 -0.7022000000
H 1.2656000000 -1.2911000000 1.0376000000
C 2.3900000000 0.1783000000 -0.0784000000
H 2.3740000000 0.6645000000 -1.0586000000
H 3.3465000000 -0.3411000000 0.0266000000
H 2.3424000000 0.9600000000 0.6865000000
C -1.2981000000 -1.0322000000 0.0290000000
H -1.0937000000 -1.9127000000 0.6442000000
F -1.6495000000 -1.4813000000 -1.2159000000
F -2.3963000000 -0.4164000000 0.5693000000
