22
0 1
C 12.8424000000 -32.1003000000 0.0828000000
H 13.4030000000 -31.1708000000 0.0674000000
C 11.4485000000 -32.0340000000 0.1472000000
H 10.9606000000 -31.0637000000 0.1917000000
C 10.6845000000 -33.2053000000 0.0972000000
H 9.5997000000 -33.1579000000 0.1384000000
C 11.3380000000 -34.4378000000 0.0031000000
H 10.7612000000 -35.3576000000 -0.0501000000
C 12.7341000000 -34.5052000000 -0.0611000000
H 13.2044000000 -35.4774000000 -0.1223000000
C 13.5211000000 -33.3380000000 0.0395000000
C 17.1447000000 -32.2323000000 0.4524000000
H 17.6646000000 -31.3678000000 0.8549000000
C 15.7493000000 -32.2607000000 0.4540000000
H 15.2166000000 -31.4123000000 0.8706000000
C 15.0044000000 -33.3435000000 -0.0688000000
C 15.7763000000 -34.4472000000 -0.4767000000
C 17.1687000000 -34.4507000000 -0.4883000000
H 17.6798000000 -35.3362000000 -0.8536000000
C 17.8648000000 -33.3411000000 -0.0055000000
H 18.9508000000 -33.3401000000 -0.0034000000
F 15.1740000000 -35.5519000000 -0.9789000000
