17
0 1
C 30.1268000000 -21.0878000000 0.0003000000
H 30.7114000000 -20.1734000000 0.0004000000
C 28.7325000000 -21.0826000000 -0.0001000000
H 28.1858000000 -20.1435000000 -0.0004000000
C 28.0519000000 -22.3059000000 -0.0003000000
H 26.9669000000 -22.3491000000 -0.0006000000
C 28.8031000000 -23.4860000000 -0.0000000000
H 28.3096000000 -24.4558000000 0.0001000000
N 30.1454000000 -23.5138000000 0.0002000000
C 30.7878000000 -22.3279000000 0.0004000000
N 33.0430000000 -21.3264000000 -0.0006000000
C 34.3524000000 -21.7114000000 0.0002000000
H 35.1336000000 -20.9598000000 0.0002000000
C 34.5686000000 -23.0770000000 0.0012000000
H 35.5141000000 -23.6034000000 0.0019000000
S 33.0770000000 -23.9127000000 0.0006000000
C 32.2527000000 -22.3907000000 -0.0005000000
