14
0 1
C -0.1425000000 0.0055000000 0.1880000000
H 0.0032000000 -0.5106000000 1.1420000000
H 0.2391000000 -0.6466000000 -0.6028000000
C 0.6013000000 1.3416000000 0.2165000000
H 0.3756000000 1.9086000000 -0.6932000000
H 0.2402000000 1.9345000000 1.0609000000
C 2.1100000000 1.1257000000 0.3327000000
H 2.4920000000 0.5631000000 -0.5249000000
H 2.3538000000 0.5645000000 1.2405000000
H 2.6399000000 2.0810000000 0.3739000000
C -1.6347000000 0.1395000000 -0.0170000000
F -2.1209000000 1.2841000000 0.5081000000
F -1.9697000000 0.1380000000 -1.3223000000
F -2.3128000000 -0.8628000000 0.5784000000
