21
0 1
C 21.7914000000 -33.5375000000 -1.1508000000
H 22.3080000000 -33.7449000000 -2.0840000000
C 20.3964000000 -33.5140000000 -1.0809000000
H 19.7935000000 -33.7038000000 -1.9648000000
C 19.7985000000 -33.2463000000 0.1533000000
H 18.7184000000 -33.2199000000 0.2632000000
C 20.6228000000 -33.0116000000 1.2592000000
H 20.1902000000 -32.8025000000 2.2356000000
N 21.9670000000 -33.0300000000 1.2095000000
C 22.5334000000 -33.2844000000 0.0122000000
C 26.1762000000 -32.1844000000 0.0007000000
H 26.7495000000 -31.2619000000 0.0104000000
C 24.7783000000 -32.1381000000 -0.0028000000
H 24.2557000000 -31.1848000000 0.0117000000
C 24.0180000000 -33.3178000000 -0.0226000000
C 24.7061000000 -34.5337000000 -0.0071000000
C 26.0956000000 -34.6105000000 0.0013000000
H 26.5756000000 -35.5840000000 0.0152000000
C 26.8333000000 -33.4213000000 0.0055000000
H 27.9187000000 -33.4650000000 0.0127000000
F 23.9933000000 -35.6821000000 -0.0039000000
