21
0 1
C 21.7458000000 -34.1034000000 -0.7992000000
H 22.2198000000 -34.8495000000 -1.4280000000
C 20.3567000000 -33.9701000000 -0.7666000000
H 19.7271000000 -34.6181000000 -1.3705000000
C 19.7967000000 -32.9830000000 0.0488000000
H 18.7218000000 -32.8416000000 0.1099000000
C 20.6582000000 -32.1685000000 0.7917000000
H 20.2597000000 -31.3858000000 1.4345000000
N 21.9963000000 -32.2844000000 0.7760000000
C 22.5295000000 -33.2481000000 -0.0059000000
C 26.1707000000 -32.1865000000 0.0066000000
H 26.7398000000 -31.2614000000 0.0140000000
C 24.7745000000 -32.1441000000 0.0068000000
H 24.2445000000 -31.1962000000 0.0264000000
C 24.0088000000 -33.3241000000 -0.0118000000
C 24.7068000000 -34.5380000000 -0.0110000000
C 26.0963000000 -34.6087000000 -0.0080000000
H 26.5756000000 -35.5827000000 0.0021000000
C 26.8339000000 -33.4205000000 -0.0037000000
H 27.9193000000 -33.4628000000 -0.0033000000
F 24.0137000000 -35.7022000000 0.0104000000
