14
0 1
C -0.1221000000 -0.0957000000 -0.0906000000
H -0.1972000000 0.3656000000 -1.0818000000
H -0.2120000000 0.7076000000 0.6487000000
C 1.2298000000 -0.8019000000 0.0321000000
H 1.3174000000 -1.5442000000 -0.7648000000
H 1.2791000000 -1.3501000000 0.9806000000
C 2.3857000000 0.1951000000 -0.0468000000
H 2.3582000000 0.7453000000 -0.9928000000
H 3.3508000000 -0.3147000000 0.0195000000
H 2.3312000000 0.9238000000 0.7682000000
C -1.3167000000 -1.0161000000 0.0606000000
H -1.6605000000 -1.1555000000 1.0878000000
F -1.0363000000 -2.2605000000 -0.4442000000
F -2.3694000000 -0.5399000000 -0.6755000000
