15
-1 1
C -0.7907100000 0.0842990000 -1.5368890000
C 0.1455790000 -0.0083610000 -0.3565690000
F -0.4999240000 -0.8756550000 -2.4769520000
H 1.1682960000 0.0986600000 -0.7393860000
H -1.8374000000 -0.0068410000 -1.2489120000
N -0.6488300000 1.4153080000 -2.2145910000
O 0.3980720000 1.6221190000 -2.8197590000
O -1.5899450000 2.1987960000 -2.1117600000
N -0.0931070000 -1.2842040000 0.3101760000
H 0.2834990000 -2.0301510000 -0.2702870000
H 0.5317530000 -1.2137600000 1.1347630000
N -0.0967890000 1.1125700000 0.5227730000
H -0.9636170000 0.9053560000 1.0149810000
H 0.6399430000 1.0021350000 1.2388710000
H 1.8064860000 -0.2580010000 2.1371570000
