15
-1 1
C 0.0649370000 0.1042550000 0.0149940000
C -0.4010630000 0.1767850000 -1.4309510000
F 1.4906660000 -0.1004760000 -0.0053900000
H 0.1763700000 0.9626440000 -1.9287700000
H -1.4598240000 0.4555070000 -1.4134390000
C -0.0455390000 1.4478470000 0.6577480000
N -0.1615400000 2.4923880000 1.1845200000
N -0.5771600000 -0.9206670000 0.7042870000
H -0.5743850000 -0.7734890000 1.7061300000
H -1.5996190000 -1.0871740000 0.3530500000
C -0.2480260000 -1.1624110000 -2.1424010000
H -0.9854880000 -1.8633310000 -1.7515260000
H -0.4204850000 -1.0376090000 -3.2166070000
H 0.7548780000 -1.5673860000 -1.9934150000
H -2.9493100000 -1.2379550000 -0.1517590000
