15
-1 1
C 0.6037445251 0.0286470124 0.0418877761
H 1.7182282181 1.7659450576 -0.5074212189
F -1.2657408923 0.0614357807 -0.2778624817
Cl 2.7058199275 -0.2959906445 0.4341530423
C 0.7233240985 1.5788823113 -0.1041311098
N 0.6329436717 -0.7659808754 -1.2224410425
O 0.8832945010 -0.1346600035 -2.2449307949
O 0.4278126569 -1.9650276893 -1.1484350362
C 0.1777838004 -0.6512118032 1.2378172397
N -0.1114570774 -1.1806050833 2.2471859476
C 0.6936109762 2.1445493225 1.2525787342
N 0.6285488077 2.6471861606 2.3116396165
N -0.2267203024 2.2777825236 -0.9394202606
H -1.1314072790 1.8705541768 -0.7209664636
H -0.0232856320 1.9962437538 -1.8911939481
