15
-1 1
C 0.7251701292 -0.0424526604 -0.0392551888
H 1.6115376130 1.8690562708 -0.2974221010
F -1.3084715786 -0.1000253715 -0.1110421906
Cl 2.8370719515 -0.1902881972 0.6147547512
C 0.6138317861 1.4697600854 -0.0946492545
H 0.4652369098 -0.5411682224 0.8758101665
N 0.8140536342 -0.7096954613 -1.2764003500
H -0.1609690665 -0.7180094975 -1.5739896778
H 1.1132854442 -1.6622740544 -1.1099982075
C 0.0943504651 2.0109784871 1.2334553217
H -0.8942450004 1.5840939085 1.3902336586
H 0.7728171817 1.6994819683 2.0312356425
H 0.0415950168 3.1028704083 1.2235583707
C -0.2317811108 1.9109673084 -1.2095720439
N -0.8222733754 2.3775950280 -2.1108688971
