13
-1 1
C 0.0153970000 0.0561040000 0.0224390000
C -0.5659660000 0.1003470000 -1.3919290000
Cl 1.8284780000 -0.2121050000 -0.1070540000
H -1.6565310000 0.2042170000 -1.2986780000
H -0.3750620000 -0.8750050000 -1.8463110000
C -0.1099050000 1.3690850000 0.6859020000
N -0.2305890000 2.3851190000 1.2650680000
N -0.5758470000 -1.0268780000 0.7174180000
H -1.5852840000 -1.0767140000 0.5026560000
H -0.4376600000 -0.9463810000 1.7165370000
C 0.0017120000 1.1576860000 -2.2173930000
N 0.4487320000 1.9982480000 -2.9039540000
Cl -3.6191160000 -0.8250220000 -0.2034540000
