14
-1 1
C -0.5712610000 0.0188940000 -1.5350370000
C 0.0343830000 -0.1056180000 -0.1513330000
Cl -0.4518530000 -1.5107250000 -2.4710650000
H 1.1237640000 -0.2277700000 -0.2195110000
H -0.3989680000 -1.0018640000 0.3080100000
N -2.0744030000 0.2958160000 -1.3987680000
O -2.5705360000 1.1441910000 -2.1300840000
O -2.6719510000 -0.3854720000 -0.5771010000
C 0.0202420000 1.0929170000 -2.3236990000
N 0.5496440000 1.8999630000 -2.9929550000
N -0.2045540000 1.1499340000 0.5208710000
H 0.7629370000 1.3058700000 0.9615830000
H -0.9020680000 1.0208780000 1.2437740000
F 2.1962570000 0.9015720000 1.2289440000
