14
-1 1
C 0.6083655834 -0.0686166875 -0.0457850478
H 1.6045294949 1.7302468832 -0.2720689296
Cl -1.5662015655 -0.3648292008 0.1741944778
F 2.5383645439 0.1139395205 0.1855148430
C 0.5587200933 1.4548203865 -0.0908632756
H 0.7421958648 -0.5361781404 0.9084841648
C 0.7776360628 -0.8152548685 -1.3400805657
H 0.0104334277 -0.5346875274 -2.0622287949
H 1.7731115403 -0.6046741410 -1.7245200578
H 0.6834227675 -1.8846133400 -1.1494647896
C 0.1700578941 2.0496112005 1.1881433069
N -0.0748325434 2.5742141992 2.2092485626
C -0.2618016503 1.9979027688 -1.1776532550
N -0.8264015138 2.5011389470 -2.0756506393
