17
-1 1
C 0.0623400000 0.0263640000 0.0316110000
C -0.5872490000 0.2508870000 -1.3493510000
Cl 1.8585710000 -0.1866340000 -0.1520460000
H -1.6605110000 0.4130380000 -1.1483510000
C -0.1169540000 1.2237580000 0.8574970000
N -0.2623840000 2.1686730000 1.5407950000
C -0.5098700000 -1.1927150000 0.7407930000
H -1.6021610000 -1.1302670000 0.7194430000
H -0.1375820000 -1.2361310000 1.7657680000
H -0.2026860000 -2.0975980000 0.2159690000
C -0.5078200000 -0.9674920000 -2.2695260000
H -0.9034310000 -0.6946670000 -3.2491970000
H -1.1541280000 -1.7481950000 -1.8713860000
H 0.5194120000 -1.3198080000 -2.3860000000
C -0.0207400000 1.4371630000 -1.9901430000
N 0.4309880000 2.3733890000 -2.5378500000
Cl -3.6975470000 -0.8094340000 -0.7425690000
