16
-1 1
C 0.2797320000 -0.0260370000 -0.2261700000
C -0.8180460000 0.1538620000 -1.2584270000
Cl 1.8872190000 0.4987490000 -0.7838040000
H -0.5260520000 -0.4794770000 -2.1164550000
H 0.3701370000 -1.0708640000 0.0660950000
N -0.0439950000 0.6890660000 1.0595900000
O -0.3803020000 -0.0270320000 2.0006290000
O 0.0275950000 1.9117660000 1.0801350000
C -1.0060540000 1.5684310000 -1.7785400000
H -1.7672760000 1.4976170000 -2.5586370000
H -0.0876510000 1.9820570000 -2.2026130000
H -1.3695400000 2.2193250000 -0.9830350000
N -2.0679120000 -0.2831600000 -0.6540040000
H -2.6809370000 -0.4234180000 -1.5123000000
H -1.9398890000 -1.2383280000 -0.3177330000
H -3.0858800000 -0.7857000000 -3.0305980000
