12
-1 1
C 0.2742906115 -0.3977575441 -0.1756339931
C 0.1134397640 -0.1581541734 1.3092178604
F 0.8255896823 -1.6555816823 -0.3866515145
H -1.8701437595 -0.6977639857 0.4103258771
H -1.1506524374 -0.5137069344 1.2827105084
C -1.1459248528 -0.3979575451 -0.8423368052
N -1.5810464367 -0.2259393419 -1.9431508296
C 0.1659198695 1.2335051052 1.6660927619
N 0.1531928497 2.3793433951 1.9419537256
C 0.8472495202 -1.0149987763 2.1952697253
N 1.4205210745 -1.7274888679 2.9384805192
H 0.9016841147 0.3386203507 -0.6788278356
