14
-1 1
C 0.1802179019 -0.0131202816 -0.2263668114
H 1.6053516983 1.5219588302 -0.6136814979
F -1.1757178438 -0.0273721887 -0.9383564267
H 1.8756188336 -0.1709841243 0.6800531327
C 0.5942755225 1.4625452087 -0.2209489897
H -0.0781237894 -0.5061284812 0.6941448411
N 0.9546439814 -0.8852618493 -1.1147691965
O 1.5438812951 -0.3638074809 -2.0701030069
O 0.7965822452 -2.1035094218 -0.9734202139
C 0.6151262761 1.9259290650 1.1829797555
N 0.5214836935 2.4523909140 2.2311782527
N -0.2726133986 2.3048190811 -1.0617239769
H -0.1354272358 3.2728872994 -0.7955778338
H -1.2368091798 2.0501634294 -0.8945980282
