19
-1 1
C 0.5627900437 -0.0941630657 -0.0421396219
H 1.5830404840 1.7447970182 -0.4481192202
F -1.0848667802 -0.2782473411 -0.2040531485
H 2.4431284531 -0.0122024057 0.2032500104
C 0.5747938320 1.4473693879 -0.1830447251
C 0.9362108240 -0.8445581665 -1.3192398875
H 0.0366007688 -1.0273975946 -1.9211225661
H 1.6717404943 -0.2884964348 -1.8995969364
H 1.3944845866 -1.7968036651 -1.0534864314
N 0.5459383670 -0.6669954069 1.2879595465
H 1.4419112604 -1.0936779716 1.4522143557
H -0.2252833142 -1.3223521038 1.3305415679
N 0.3569230851 2.0592267359 1.1643044689
O 1.3403472631 2.5122666194 1.7503768401
O -0.7893095251 2.0905224227 1.6084995767
C -0.4469715534 2.0355083936 -1.1449506131
H -0.3270705072 1.5700364273 -2.1260175306
H -1.4552591768 1.8480952587 -0.7921418590
H -0.2747286053 3.1130218920 -1.2502538262
