12
-1 1
C -0.0671280000 -0.0610040000 -1.4886790000
C 0.0267060000 0.0495100000 0.0250770000
Cl -1.8012290000 -0.5170790000 -1.9672090000
H 1.0967340000 0.1992340000 0.2049260000
H 0.0329670000 0.9338250000 -1.9386490000
H -0.2615660000 -0.9110680000 0.4594560000
N 0.8533950000 -1.0430480000 -1.9234060000
H 1.0136860000 -0.9354010000 -2.9180990000
H 1.7483180000 -0.8116020000 -1.3903750000
C -0.7910650000 1.1144940000 0.5835920000
N -1.4280340000 1.9858270000 1.0470090000
F 2.7239720000 -0.1073290000 -0.4169590000
