14
-1 1
C -0.2582086789 -0.0983508180 -0.3383761190
C -0.1498402944 -0.0216453426 1.1671101276
Cl 1.4599987955 -0.3147010287 -1.1322682042
H -2.5619443085 -0.8506003031 1.4756471585
H -1.2689435350 -0.2629728638 1.5155612699
H 0.2258227594 0.9353787714 1.5175213035
N -1.1280779932 -1.1173393734 -0.7416058230
H -1.5532185348 -0.9316261837 -1.6396014557
H -1.8440924893 -1.2471819710 0.0109374428
N 0.6628192063 -1.0577244384 1.7839309027
O 0.5568931252 -2.2119486864 1.3683666395
O 1.3522619402 -0.7234279646 2.7578963442
C -0.6394599659 1.2422781903 -0.8227782947
N -1.0076300266 2.2898620120 -1.2108112922
