15
-1 1
C 0.0760600000 0.0990270000 0.0362160000
C -0.3990150000 0.1436540000 -1.4100100000
F 1.5016750000 -0.1221920000 0.0110560000
H 0.1850810000 0.9115770000 -1.9280660000
H -1.4542430000 0.4207680000 -1.3849950000
C -0.0109770000 1.4615980000 0.6445840000
N -0.1164650000 2.5214250000 1.1422710000
N -0.5760960000 -0.8886600000 0.7620130000
H -0.5847510000 -0.7000520000 1.7542060000
H -1.5622700000 -1.1194380000 0.3370640000
C -0.2836540000 -1.2210280000 -2.0830510000
H -1.0880440000 -1.8385480000 -1.6863890000
H -0.4144410000 -1.1181510000 -3.1656310000
H 0.6904180000 -1.6753020000 -1.8902170000
F -2.7541330000 -1.3098220000 -0.4190180000
