18
-1 1
C 0.0805090000 -0.0012280000 -0.0270490000
C -0.4646550000 -0.0791980000 -1.4758050000
F 1.4020960000 -0.5137410000 -0.0301100000
H 0.3609720000 0.3003340000 -2.0978120000
C 0.2240200000 1.4230490000 0.3424940000
N 0.3614050000 2.5553320000 0.6237910000
C -0.7434250000 -0.7485930000 0.9971310000
H -0.5096660000 -1.8103820000 0.8899470000
H -1.8216770000 -0.6355300000 0.7727940000
H -0.4824250000 -0.4342020000 2.0110750000
N -1.6594560000 0.7065110000 -1.7058240000
H -2.4342290000 0.2537540000 -1.1679850000
H -1.5280430000 1.6619430000 -1.3935610000
C -0.7802640000 -1.5252390000 -1.8413910000
H 0.0281630000 -2.2053930000 -1.5588530000
H -1.7163390000 -1.7832980000 -1.3374420000
H -0.9359710000 -1.5872100000 -2.9213490000
F -3.3045240000 -0.7886760000 -0.2387020000
