12
-1 1
C -0.2527930000 0.1310600000 0.0132670000
C -0.6776090000 0.0869410000 -1.4366090000
Cl 1.3229560000 -0.6292960000 0.2661640000
H -1.6811680000 0.5058570000 -1.5080110000
H -1.0168800000 -0.4116010000 0.5872020000
H -0.7730470000 -0.9676110000 -1.7010250000
N -0.2172120000 1.5454760000 0.5451540000
O -0.7814620000 2.4053280000 -0.1287150000
O 0.3003850000 1.7260300000 1.6403900000
C 0.2457570000 0.7678190000 -2.3410080000
N 0.9826600000 1.2961400000 -3.0859590000
Cl -2.9943590000 -1.4844160000 0.2392050000
