16
-1 1
C 0.0414400000 0.0178680000 -0.0325530000
C -0.4551470000 -0.0208670000 -1.5029380000
F 1.3693970000 -0.4270040000 -0.0160750000
H -0.4958940000 -1.0828250000 -1.7732090000
C 0.0502660000 1.4174410000 0.4331920000
N 0.0455450000 2.5358530000 0.7916780000
C -0.7750170000 -0.8708620000 0.8760970000
H -0.6339840000 -1.9050520000 0.5549450000
H -1.8428180000 -0.6542180000 0.8092600000
H -0.4279600000 -0.7637160000 1.9057510000
C 0.5636220000 0.6172850000 -2.3589450000
N 1.3621590000 1.1353340000 -3.0459400000
N -1.7518950000 0.5510280000 -1.7555020000
H -1.8088570000 1.4980030000 -1.3993520000
H -2.4869260000 -0.0216940000 -1.3231110000
Cl -4.0847350000 -1.2243570000 -0.3631920000
