19
-1 1
C -0.0125540000 0.0009590000 0.0207420000
C -0.5389170000 0.0641370000 -1.4460200000
F 1.4156160000 -0.0247570000 -0.0739000000
H 0.3674150000 0.1138490000 -2.0611590000
C -0.3698470000 1.2221800000 0.8412600000
H -1.4554600000 1.2321630000 0.9483380000
H 0.1076840000 1.1440580000 1.8237140000
H -0.0444630000 2.1336620000 0.3420990000
C -0.4217070000 -1.2552530000 0.7596460000
H 0.0372270000 -1.2509390000 1.7540320000
H -1.5101590000 -1.2386840000 0.8404250000
H -0.1078930000 -2.1418320000 0.2106990000
N -1.3077200000 1.2940920000 -1.6688080000
H -1.5423180000 1.3090650000 -2.6578800000
H -2.1841440000 1.0958120000 -1.1557430000
N -1.2541120000 -1.1710210000 -1.7888650000
H -2.1389750000 -1.0578160000 -1.2667240000
H -1.4862990000 -1.1027080000 -2.7763340000
F -3.0904780000 -0.0336040000 -0.1218640000
