12
-1 1
C 0.6391464258 -0.0064230538 -0.0167420722
H 1.7015263713 1.8223453823 -0.0129413266
Cl -1.6778201402 -0.1861360530 -0.0563626026
Cl 2.9371344996 -0.3502828169 0.0883974060
C 0.6569758326 1.5088442186 -0.0091441537
H 0.6594572116 -0.5021319243 -0.9684888452
H 0.5912879210 -0.5629880316 0.8979091179
C 0.0791988117 2.0386492254 1.2471423551
N -0.3253972910 2.5685139763 2.2145554626
N 0.0469247381 2.0505692270 -1.2163089341
H 0.1076919016 3.0614067827 -1.1929426568
H -0.9302362820 1.7789530674 -1.2169037504
