15
-1 1
C 0.0597700000 0.0964360000 0.0143190000
C -0.5705100000 0.2095690000 -1.3852540000
Cl 1.8178130000 -0.3150910000 -0.1506480000
H -1.5885480000 0.5778990000 -1.2015340000
H 0.0473830000 1.0785690000 0.4891420000
N -0.5981030000 -0.8874100000 0.8308270000
H -0.2399350000 -1.8004750000 0.5688740000
H -1.5956420000 -0.9238910000 0.5192370000
N -0.6865270000 -0.9685510000 -2.1521130000
H -1.5616850000 -1.3996730000 -1.8125700000
H 0.1038970000 -1.5857730000 -2.0170470000
N 0.1438790000 1.3161860000 -2.1230000000
O 0.8219900000 1.0478120000 -3.1090180000
O 0.0307570000 2.4443060000 -1.6332980000
H -2.9655950000 -1.1732650000 -0.5852180000
