15
-1 1
C -0.6436510000 0.0479600000 -1.5084470000
C 0.0659860000 0.0798680000 -0.1422040000
Cl -0.0243120000 1.5197360000 -2.4979850000
H 1.1415570000 0.2594050000 -0.2808350000
C -0.2286810000 -1.1287140000 -2.2764040000
N 0.0465110000 -2.0246630000 -2.9840590000
N -2.0531560000 0.0571130000 -1.3806210000
H -2.5079860000 0.0286010000 -2.2839800000
H -2.3558430000 0.8768260000 -0.8667920000
N -0.0365810000 -1.1922530000 0.5029190000
H -0.8015940000 -1.2096770000 1.1675670000
H 0.9354010000 -1.2671570000 1.0035320000
C -0.4865190000 1.2227810000 0.6105420000
N -1.0168270000 2.0832000000 1.2125500000
H 2.2694270000 -0.9180840000 1.3233510000
