13
-1 1
C 0.6740092303 -0.0580712579 0.0473009689
H 1.8601213532 1.7124337000 0.2589131541
F -1.0629737987 0.0645215073 -0.0264208905
F 2.3755281984 -0.3288905710 -0.0296790160
C 0.8164456679 1.4515351747 0.0947010170
H 0.5079701049 1.8089683308 -0.8888527801
N 0.5856304455 -0.7475366546 -1.2864563815
O 0.6629108834 -0.0417633591 -2.2836136861
O 0.4535057745 -1.9611589518 -1.2748858561
C 0.5793662502 -0.8667345122 1.2460176704
N 0.5237024772 -1.4893283395 2.2399269409
C -0.0119805038 2.0825231681 1.1189134579
N -0.5801560830 2.6734117652 1.9586554011
