16
-1 1
C 0.0217910000 -0.0031200000 -0.0010460000
C -0.3143470000 0.2348700000 -1.4814650000
F 1.3728370000 -0.3991000000 0.0816370000
H 0.5295260000 0.7674620000 -1.9301950000
C 0.0184820000 1.3240510000 0.6888330000
N 0.0616000000 2.3229190000 1.3069190000
N -0.7965510000 -0.9850700000 0.5665280000
H -0.7036210000 -0.9712870000 1.5748150000
H -1.8310710000 -0.8567930000 0.3038610000
N -1.5381860000 0.8960020000 -1.6263950000
H -2.3211950000 0.3985010000 -1.1237330000
H -1.7606230000 1.0434290000 -2.6006660000
N -0.2163140000 -1.1509230000 -2.1825590000
O -1.2606800000 -1.7284220000 -2.4599380000
O 0.9158910000 -1.5519430000 -2.4525430000
F -3.1954400000 -0.4552630000 -0.1514030000
