14
-1 1
C -0.4488070000 -0.0053770000 -1.3545040000
C -0.0353040000 -0.0426260000 0.1145540000
Cl -0.0343220000 -1.6496620000 -1.9793330000
H 1.0530240000 0.0122020000 0.0765640000
H -0.4168800000 -0.9385200000 0.6037550000
N -1.8618170000 0.1951150000 -1.6374330000
H -2.3961300000 -0.4249160000 -1.0373010000
H -2.0827930000 1.1541200000 -1.3921300000
C 0.2980590000 0.9828530000 -2.1499230000
N 0.6228180000 1.8095800000 -2.9191910000
N -0.5572270000 1.1007240000 0.8689720000
O -0.6721340000 0.9667580000 2.0895870000
O -0.8114730000 2.1494000000 0.2658000000
F 2.2890810000 0.2419890000 -0.7169350000
