14
-1 1
C 0.0323780000 0.0074720000 0.0238880000
C -0.5620960000 -0.1633650000 -1.3794440000
Cl 1.8462220000 -0.0699590000 -0.0728870000
H -1.6635120000 -0.1397270000 -1.2618840000
H -0.2452730000 0.6583850000 -2.0268250000
C -0.2836610000 1.3508710000 0.5159990000
N -0.4878440000 2.4312790000 0.9293950000
C -0.4698450000 -1.0581430000 0.9837820000
H -1.5630430000 -1.0063730000 0.9940130000
H -0.0654940000 -0.8910530000 1.9833670000
H -0.1554330000 -2.0409880000 0.6274630000
C -0.1638190000 -1.4300640000 -1.9815230000
N 0.1625820000 -2.4438700000 -2.4755190000
Cl -3.7317700000 -0.3013110000 -0.3308220000
