14
-1 1
C 0.7515114193 0.0456656322 -0.0103755119
H 1.6839422481 1.8963099639 -0.4392263698
F -1.1187881911 -0.2898109889 -0.5883348668
Cl 2.8268188771 -0.1047833810 0.6128252335
C 0.6938660113 1.5812105954 -0.0959944063
H 0.9309323388 -0.5120940205 -0.9103226795
C 0.2281330477 -0.6471397581 1.1429177379
N -0.0977030553 -1.1901754439 2.1338373879
N 0.4110361385 2.0990335130 1.2508190298
H 0.6328582791 3.0899607532 1.2486996454
H 1.0567149946 1.6669226505 1.9061589702
N -0.2694486095 2.0278779891 -1.0842316148
H -0.5460793708 2.9734126905 -0.8440571957
H -1.0639241278 1.3950698046 -0.9836453599
