18
-1 1
C -0.0081710000 0.0265390000 0.0059890000
C -0.5197200000 0.2892240000 -1.4191490000
F 1.4058710000 -0.0402110000 -0.0248770000
H -1.6202830000 0.2948080000 -1.2726900000
C -0.3909000000 1.1569160000 0.9437890000
H 0.0100450000 2.1203450000 0.6188620000
H -0.0062670000 0.9361540000 1.9448900000
H -1.4827660000 1.1643630000 0.9552990000
N -0.5232490000 -1.2494740000 0.4064290000
H -1.5596600000 -1.1134860000 0.2870210000
H -0.3400990000 -1.3547160000 1.4004200000
C -0.1222710000 -0.8245620000 -2.3903360000
H -0.5493400000 -1.7613910000 -2.0378220000
H -0.4984370000 -0.6085440000 -3.3940640000
H 0.9644060000 -0.9281980000 -2.4329610000
C -0.0523120000 1.5790920000 -1.9166040000
N 0.3242490000 2.6043990000 -2.3514370000
F -2.9144090000 -0.2800200000 -0.1204210000
