14
-1 1
C 0.5465616263 -0.0228881598 -0.0388086598
H 1.7601890723 1.7320292114 0.1112884969
F -1.1834644053 0.1155553193 -0.0793583976
F 2.3594386120 -0.2728926553 0.0403060318
C 0.7129890021 1.4821749308 -0.0397088134
H 0.5106463011 -0.5536620574 0.8926146927
C 0.5879621094 -0.7492113511 -1.2900523080
N 0.5711182489 -1.3593179843 -2.2931857395
N 0.0324353920 2.0038240355 1.2511336674
O -0.6693323785 3.0097270873 1.1607652562
O 0.3042901594 1.4378314919 2.3042289257
N 0.1816563175 2.0743604076 -1.2083929682
H 0.1938454326 3.0814319049 -1.1329135963
H -0.7748754899 1.7513478192 -1.2923065880
