15
-1 1
C 0.4128976692 -0.0317072264 -0.0245677653
H 1.4765008358 1.7196704273 -0.4455230147
Cl -1.6691985241 -0.2846487603 -0.4337409219
F 2.3203156234 -0.0662573293 0.3717688040
C 0.4833307082 1.4791962450 -0.0773373032
H -0.2584134906 1.8458670606 -0.7863491300
N 0.8688934456 -0.7854692514 -1.2316682182
O 1.0837857506 -0.1170631204 -2.2351195172
O 0.9575686917 -2.0002605694 -1.1418689043
C 0.3980630443 -0.7753132527 1.2108923429
N 0.2786637140 -1.3271483532 2.2426143802
C 0.2680998773 2.0802576176 1.3028603033
H -0.7072992584 1.8037458433 1.7093551979
H 1.0472288303 1.7242377682 1.9777298042
H 0.3221430828 3.1715929011 1.2496639423
