15
-1 1
C 0.5178676174 -0.0360469189 -0.0177257729
H 1.6529599017 1.7173405306 -0.4042165226
F -1.2431202603 0.0172843020 -0.3804816936
F 2.1750332913 -0.1724215466 0.5118458422
C 0.6359013991 1.4741167051 -0.0997464916
H 0.2198047844 -0.4985133842 0.9056515012
C 0.7454643930 -0.8828473119 -1.1711423397
N 0.9473784994 -1.6178762098 -2.0642975989
C 0.2844696034 2.0889903705 1.2336785462
H -0.7422463400 1.8254738185 1.4845705117
H 0.9744809703 1.6744681105 1.9701915623
H 0.3795607322 3.1756892081 1.2159879731
N -0.2134352025 2.0448004464 -1.2039770207
O -1.0869004714 2.8630259555 -0.9293768256
O 0.0943510820 1.7077959243 -2.3434416708
