16
-1 1
C 0.6443499029 -0.0242689704 0.0221073345
H 1.6789050255 1.8226836796 0.1250817841
F -1.1318972943 -0.0307864035 -0.1603206116
F 2.4973983209 -0.0559835898 0.0214090474
C 0.6418278435 1.5051720709 0.0307436553
C 0.7574882469 -0.7172234908 -1.2479205908
N 0.8111176174 -1.3278536026 -2.2501197993
C 0.6467027406 -0.8000769563 1.3202811784
H 1.0209561212 -1.8056500223 1.1318401184
H 1.3326946095 -0.3194833593 2.0162309290
H -0.3595277322 -0.8420299951 1.7319281695
C -0.0945451180 1.9863943962 1.2232974083
N -0.6474650831 2.4806012004 2.1350598823
N 0.0912157089 2.0219849638 -1.2141437488
H 0.0296323964 3.0319553621 -1.1634178728
H -0.8420733060 1.6304047172 -1.2818768839
