12
-1 1
C 0.4810995635 -0.0364814425 -0.0398756975
H 1.8289231920 1.5435244184 -0.3551898655
Cl -1.6341407948 -0.0129946085 -0.1924327669
F 2.3485215565 -0.3037224493 0.3107103146
C 0.7660384662 1.4434151152 -0.1485870744
H 0.4404900712 -0.5700856726 0.8864100686
H 0.5639966304 1.8749026853 0.8352335150
N 0.7420979808 -0.8705188579 -1.2259186888
O 1.0351166232 -0.2840208854 -2.2640776917
O 0.6403886475 -2.0822379889 -1.0908435378
C 0.0139617217 2.2059984720 -1.1457241745
N -0.4917236582 2.9353812141 -1.9136944012
