15
-1 1
C 0.3885757699 -0.0645228198 0.1002248196
H 1.7103277781 1.5230101528 0.5018123039
Cl -1.7862814793 -0.0152454708 0.3830750302
F 2.1877425001 -0.1256167120 -0.6338846030
C 0.6805640623 1.4262119496 0.1599916247
H 0.2031408829 -0.4832662595 -0.8674851173
C 0.7384566451 -0.9370174474 1.2729847812
H 1.8159104009 -0.8925356815 1.4182772376
H 0.2162725919 -0.6218460975 2.1739159367
H 0.4487520567 -1.9633189363 1.0445135984
N -0.1281388862 2.2125131876 1.1728636838
O -0.8496256789 3.1258941131 0.7924967637
O 0.0735027875 1.8998554471 2.3427387750
C 0.5595257764 2.0387705688 -1.1568870879
N 0.4812947926 2.5403340058 -2.2148677466
