18
-1 1
C -0.0202560000 -0.0033200000 -0.0303900000
C -0.3112110000 -0.2210260000 -1.5400020000
Cl 1.8076960000 0.0783070000 0.1179360000
H 0.3714810000 -1.0138270000 -1.8714360000
C -0.6128430000 1.2844410000 0.5026050000
H -1.7043780000 1.1604200000 0.4407670000
H -0.2653140000 2.1509140000 -0.0639110000
H -0.3275150000 1.4138960000 1.5504880000
C -0.5279220000 -1.1914630000 0.7637070000
H -1.6232800000 -1.1155210000 0.7451310000
H -0.1727070000 -1.1273130000 1.7955040000
H -0.1794760000 -2.1366710000 0.3343100000
C 0.0716720000 0.9810960000 -2.3123080000
N 0.3725150000 1.9238840000 -2.9447000000
N -1.6764820000 -0.5952270000 -1.8673480000
H -1.7317600000 -1.6047240000 -1.8057630000
H -2.3532180000 -0.2470620000 -1.1366980000
F -3.2073040000 -0.0195690000 0.1926560000
