13
-1 1
C 0.0000580000 -0.0245870000 0.0141460000
C -0.5073900000 -0.1469360000 -1.4346490000
Cl 1.8343720000 0.1386140000 -0.0174290000
H -1.6137650000 -0.1744820000 -1.2935250000
H -0.1383970000 -1.0514700000 -1.9260000000
N -0.5914260000 1.0296920000 0.7570250000
H -0.3807160000 1.9014950000 0.2745330000
H -1.6506790000 0.8604090000 0.6093370000
C -0.2588520000 -1.3106140000 0.6856950000
N -0.4184340000 -2.3549540000 1.1985070000
C -0.1659020000 1.0249180000 -2.2253620000
N 0.1053200000 1.9664030000 -2.8732740000
H -2.9713530000 0.4088290000 -0.0240800000
