14
-1 1
C 0.7578900230 -0.0882132800 0.0889234042
H 1.7779333335 1.5304709565 0.9706908509
F -1.0336650627 -0.0504156705 0.3548118953
F 2.4363982156 -0.1492637536 -0.3471180247
C 0.9283360580 1.4075225971 0.3061226694
H 1.0937376966 1.9065817667 -0.6447814989
C 0.4149044401 -0.5811186479 -1.2483082180
N 0.1785889905 -1.0141288736 -2.3146729478
N 0.9328409553 -0.9701566088 1.2022311820
H 1.6625847834 -1.6249823249 0.9603544970
H 0.0461662835 -1.4274183261 1.3543472244
N -0.2140871552 2.1052098279 0.9595144582
O -0.9326628998 2.8109478846 0.2538394559
O -0.3185156618 1.9918644525 2.1771350522
