18
-1 1
C -0.1732670000 0.0003470000 -1.4812260000
C -0.0127390000 0.0075100000 0.0541100000
Cl -1.9685950000 -0.1411710000 -1.8828110000
H 1.0824150000 -0.0212260000 0.1422760000
C 0.3470050000 1.2883390000 -2.0828530000
H 1.3988430000 1.3668430000 -1.7810650000
H 0.2883790000 1.2056090000 -3.1687710000
H -0.2215450000 2.1591710000 -1.7538780000
N 0.5261350000 -1.0925650000 -2.0912110000
H 0.2181080000 -1.9617100000 -1.6616790000
H 1.5165030000 -0.9409750000 -1.7838350000
C -0.5293690000 -1.2312530000 0.6287450000
N -0.9415820000 -2.2148710000 1.1233720000
C -0.5836760000 1.2161230000 0.7943660000
H -1.6451300000 1.3501220000 0.5726940000
H -0.0405730000 2.1174390000 0.5067340000
H -0.4671510000 1.0865290000 1.8733720000
H 2.8088100000 -0.2208870000 -0.7513600000
