12
-1 1
C -0.1177700000 -0.0209140000 0.0035060000
C -0.5275800000 0.0149630000 -1.4527250000
Cl 1.6327530000 0.2610880000 0.2102890000
H -1.6167290000 -0.1077750000 -1.4566030000
H -0.6796520000 0.6888200000 0.6046420000
H -0.0471420000 -0.7992120000 -1.9971880000
N -0.4022870000 -1.3788850000 0.5980840000
O -0.4361650000 -1.4314680000 1.8195180000
O -0.5259020000 -2.3277190000 -0.1710040000
C -0.1821480000 1.2900020000 -2.0704080000
N 0.1007560000 2.2986520000 -2.5990640000
Cl -3.2444090000 0.4795380000 0.2824970000
