12
-1 1
C -0.7614688149 -0.0053316972 -0.1829564565
C -0.3185611548 -0.0428380990 1.2533117281
Cl -0.3289701963 -1.4611504946 -1.0682853418
H -2.7247855932 -0.8383064292 1.5555794461
H -1.2148042038 -0.6559596796 1.6918710338
H -1.8665383576 0.0427382751 -0.1204085209
H -0.4609695158 0.9505558422 1.6856216057
N -0.2768941708 1.2303700410 -0.8974841064
O -0.6933245674 2.2834000053 -0.4131275410
O 0.4616619530 1.1483133849 -1.8740436148
C 1.0189473852 -0.5308658304 1.4980083787
N 2.0887772366 -0.9461253184 1.7599633891
