18
-1 1
C 0.4381082752 -0.0273753627 -0.0465318034
H 1.5453218144 1.6238555660 -0.8388938262
Cl -1.6400742837 -0.1912500607 -0.2074545128
H 2.4689975625 0.1458877572 0.3011694684
C 0.6588175921 1.5006904903 -0.2286484884
C 0.8681445101 -0.9076294216 -1.2222235008
H 0.0253730272 -1.1461380344 -1.8756846938
H 1.6382578732 -0.4056056323 -1.8044152182
H 1.2962248813 -1.8343228796 -0.8381129432
N 0.4436700208 -0.5061189222 1.3313730598
H 1.3926876306 -0.7959438386 1.5157255498
H -0.2085363500 -1.2757385859 1.4169385415
N 0.7841421374 2.2594367238 0.9777632253
H 1.6429653619 1.8897424733 1.3785187568
H 0.0408346375 1.9547162935 1.5994253396
N -0.4210661744 2.1472884410 -1.0930801281
O -1.2475568062 2.8961772170 -0.5875911120
O -0.3536917099 1.8841477759 -2.2952977144
