15
-1 1
C -0.0050680000 -0.0027470000 0.0101230000
C -0.5888050000 0.3035330000 -1.3604150000
Cl 1.7951060000 -0.0055600000 -0.0630330000
H -1.6891420000 0.2448890000 -1.2487140000
H -0.2596720000 -0.4427680000 -2.0835510000
C -0.4898770000 0.9280270000 1.0881190000
H -0.1963580000 1.9471680000 0.8308270000
H -1.5811920000 0.8557090000 1.1176870000
H -0.0625390000 0.6572820000 2.0512910000
N -0.3630340000 -1.4515740000 0.3598320000
O -0.4300220000 -2.2487620000 -0.5681930000
O -0.4874700000 -1.7221200000 1.5473260000
C -0.2004780000 1.6328610000 -1.8097200000
N 0.1179210000 2.6997120000 -2.1825660000
Cl -3.7076880000 0.0478650000 -0.2132830000
