14
-1 1
C 0.3618311839 -0.0648352339 -0.1186987546
H 1.6767389642 1.5700545771 -0.3645737935
Cl -1.7368269599 -0.1391498296 -0.2362372513
H 2.3108316393 -0.2780406367 0.6002792807
C 0.6184653659 1.4468140273 -0.1548765933
H 0.3837438414 -0.5325752847 0.8485808057
N 0.7023471166 -0.7770066530 -1.3199588873
H 0.1047367336 -1.5930304693 -1.3771766068
H 1.6594335125 -1.0702039935 -1.1716042214
C 0.3837146365 1.9941223395 1.2012925999
N 0.1386706860 2.5093917601 2.2287540102
N -0.1187643524 2.1643979924 -1.1931195880
H 0.0894109266 3.1517169115 -1.1006780725
H -1.1118732941 2.0285144928 -1.0524529278
