15
-1 1
C -0.1246450000 -0.0883320000 0.0185420000
C -0.5527490000 -0.0145570000 -1.4449040000
F 1.2513620000 0.2213740000 0.0774770000
H -1.6199900000 -0.2546580000 -1.4679160000
H -0.6630570000 0.7037850000 0.5393470000
C -0.3464900000 -1.4299140000 0.6700790000
H -1.4155690000 -1.6528430000 0.6764560000
H 0.0079640000 -1.4046780000 1.7028480000
H 0.1893570000 -2.2174730000 0.1347220000
C 0.1839040000 -1.0188920000 -2.2337820000
N 0.7721070000 -1.8359060000 -2.8380920000
N -0.4031080000 1.3051980000 -2.0440740000
H -1.1831810000 1.8479060000 -1.6746120000
H 0.4588210000 1.7112990000 -1.6966780000
Cl -3.1500500000 1.5530000000 -0.1494720000
