13
-1 1
C 0.2365828102 -0.0484912521 -0.1093192370
H 1.4882937930 1.5830472929 -0.6572104666
Cl -1.6316111810 -0.3582839315 -0.6602542588
H 2.2038132236 0.0290622476 0.7143690585
C 0.5080890000 1.4682891175 -0.1832522959
H 0.1868421844 -0.4186730531 0.9014961318
C 1.0436527242 -0.8562490826 -0.9996894005
N 1.4880632973 -1.5228089952 -1.8657625287
N 0.4723273765 1.9896450424 1.1840972314
H 0.6817880539 2.9835701768 1.1559026043
H 1.2693488094 1.5075194820 1.6114268521
C -0.4439032610 2.2313816037 -1.0076105507
N -1.0738868304 2.9579113517 -1.6826531399
