16
-1 1
C 0.4547468693 -0.0062403798 -0.0821889835
H 1.4239341009 1.6978271691 -0.9056522354
F -0.9469288387 -0.2727195382 -0.7861181220
H 2.1610691367 0.1610288260 0.5123722633
C 0.5814184364 1.5258621212 -0.2364598301
N 1.2043970854 -0.8469500337 -1.0695003964
O 1.5662301136 -0.3162175492 -2.1190261731
O 1.3001081331 -2.0490394507 -0.8226737690
N 0.0952915585 -0.5587123385 1.1800226219
H 0.9225266352 -0.9279596403 1.6195363356
H -0.5748757011 -1.2967164139 1.0026950417
N 0.8275605447 2.2377810967 1.0137129991
H 1.6943611220 1.8123704475 1.3437600458
H 0.1113624628 1.9208587642 1.6624425905
C -0.6023775591 2.1516506636 -0.8628840590
N -1.4847040995 2.7489462559 -1.3564283294
