14
-1 1
C -0.0042230000 -0.0306580000 0.0714080000
C -0.5156320000 -0.0325780000 -1.3680620000
F 1.3664990000 -0.4134390000 0.0678500000
H -1.6317290000 -0.1235510000 -1.2989170000
H -0.1887940000 0.8468350000 -1.9164190000
C 0.0449330000 1.3863880000 0.5381780000
N 0.0475610000 2.4908130000 0.9405430000
N -0.7722870000 -0.8688240000 0.8776130000
H -0.7522840000 -0.5873730000 1.8488900000
H -1.7738570000 -0.8903450000 0.5088810000
N -0.0190590000 -1.1926500000 -2.1336200000
O 0.4747440000 -0.9567160000 -3.2426720000
O -0.1646050000 -2.3143570000 -1.6584510000
H -3.0601600000 -0.6076650000 -0.3164080000
