13
-1 1
C -0.1080750000 0.0604750000 0.0014890000
C -0.5492660000 0.2039150000 -1.4725230000
Cl 1.6831000000 -0.1345260000 0.1094580000
H -1.6442290000 0.1563660000 -1.4142980000
H -0.5878910000 -0.8124660000 0.4435280000
C -0.4751400000 1.2657720000 0.7362260000
N -0.6873480000 2.2898240000 1.2706650000
C -0.0928830000 -0.9632570000 -2.2367470000
N 0.2946350000 -1.8746900000 -2.8665230000
N -0.1285490000 1.4164510000 -2.1510760000
H -0.6142530000 2.2049480000 -1.7405560000
H 0.8682800000 1.5556970000 -2.0284450000
Cl -3.1314580000 -0.7801190000 0.2884340000
