13
-1 1
C -0.0727120000 -0.0502850000 0.0267360000
C -0.6055400000 -0.0139340000 -1.4000700000
Cl 1.6930050000 0.2587080000 0.0820990000
H -1.7070620000 -0.1139560000 -1.2970310000
H -0.5796280000 0.7713110000 0.5375150000
C -0.3817040000 -1.2830620000 0.7442840000
N -0.5794300000 -2.2476340000 1.3834730000
N -0.0928940000 -1.1263790000 -2.2789440000
O 0.4305590000 -2.0932550000 -1.7365920000
O -0.2981390000 -0.9989580000 -3.4817140000
C -0.3143770000 1.2570850000 -2.0488530000
N -0.0686440000 2.2849980000 -2.5601170000
Cl -3.1910380000 0.6817850000 0.1233690000
