14
-1 1
C 0.1431340000 0.0942810000 0.0431010000
C -0.4871640000 0.2500940000 -1.3465080000
F 1.5265760000 -0.2097830000 -0.1887520000
H -1.5382300000 0.5078400000 -1.1852360000
H 0.1911980000 1.0627850000 0.5604700000
N -0.4804350000 -0.9282420000 0.7673860000
H -1.3808930000 -1.2402520000 0.3195170000
H -0.5968170000 -0.6885790000 1.7390530000
N -0.4983250000 -0.9686680000 -2.1416080000
H -1.3162080000 -1.4693720000 -1.7567400000
H 0.3449310000 -1.4872920000 -1.9224930000
C 0.1805270000 1.3523820000 -2.0632030000
N 0.6966840000 2.2517290000 -2.6144280000
F -2.6279930000 -1.4764090000 -0.6211120000
