12
-1 1
C -0.0674500000 -0.0280890000 0.0188180000
C -0.5020840000 -0.5032170000 -1.3503410000
Cl 1.7146640000 0.2590630000 0.0593220000
H -0.0237550000 -1.4348200000 -1.6465530000
H -0.5751100000 0.9050250000 0.2567420000
H -1.5966320000 -0.5731610000 -1.3201260000
C -0.3782060000 -1.0484480000 1.0144500000
N -0.5246640000 -1.8999230000 1.8093660000
N -0.1737700000 0.4943480000 -2.4048910000
O 0.0187280000 0.0484380000 -3.5358170000
O -0.1615620000 1.6811520000 -2.0974630000
Cl -3.2218610000 0.5017740000 0.0353160000
