15
-1 1
C 0.5866339199 0.0055149609 0.0867334979
H 1.7901187164 1.6767942710 -0.2239856434
Cl -1.6067239668 -0.0548285258 0.2388748591
F 2.5275360100 -0.1775485696 -0.2827055225
C 0.7312546601 1.5246122962 -0.0205266538
H 0.5415802161 -0.5807280561 -0.8136351564
N 0.8581360931 -0.5333736919 1.3859087167
H 1.7973125149 -0.9009273659 1.2697859429
H 0.1970259516 -1.2701937409 1.5861878319
N 0.3168129208 2.2953797644 1.1143699870
H 0.7804340129 1.8536717907 1.9027389909
H -0.6756010379 2.1252182415 1.2461658690
N 0.0267677628 2.0043721774 -1.2581009399
O -0.7762313343 2.9274528517 -1.1707635045
O 0.3361035603 1.4386335963 -2.3050382752
