15
-1 1
C 0.0002380000 -0.0133860000 0.0085380000
C -0.5140000000 -0.1645870000 -1.4213720000
F 1.4097280000 0.0866230000 -0.0212520000
H -0.2292890000 0.7360300000 -1.9716690000
H -1.6170560000 -0.1827060000 -1.2979910000
N -0.5438810000 1.2210870000 0.4944620000
H -1.5745250000 1.0726800000 0.3658510000
H -0.3677540000 1.2619780000 1.4946850000
C -0.3569530000 -1.2210200000 0.8550090000
H 0.0277180000 -1.0754700000 1.8695700000
H -1.4483670000 -1.2514100000 0.8653660000
H 0.0622400000 -2.1463260000 0.4504170000
C 0.0047740000 -1.3386620000 -2.1053960000
N 0.4163090000 -2.2855510000 -2.6660580000
F -2.9156330000 0.1945740000 -0.0797970000
