15
-1 1
C 0.5774946754 -0.1335800360 -0.0012999869
H 1.6989042632 1.6357172086 -0.0190441215
Cl -1.6932680528 -0.1383919677 0.0217843795
F 2.5083048683 -0.1229418621 -0.0186366413
C 0.6281364225 1.4087685654 -0.0011721344
N 0.6352427699 -0.7581081943 -1.2860047403
H -0.1093027883 -1.4311288429 -1.3864554487
H 1.5538714875 -1.1757615615 -1.3442837770
N 0.6585762526 -0.7636241192 1.2790402664
H 1.5836496038 -1.1686580390 1.3238667233
H -0.0752396683 -1.4476797934 1.3836959411
C 0.0749160240 2.0111680079 1.2124049840
N -0.2875304397 2.5848045138 2.1702554014
C 0.0340769199 2.0154400166 -1.1932319917
N -0.3657123379 2.6025061037 -2.1278388539
