13
-1 1
C -0.0757410000 -0.0155160000 0.0080530000
C -0.5160080000 0.0320480000 -1.4297360000
Cl 1.6941900000 0.1731650000 0.1571900000
H -1.6094280000 -0.0578840000 -1.4251460000
H -0.5755890000 0.7320770000 0.6145830000
H -0.0358090000 -0.7250880000 -2.0416990000
N -0.4064310000 -1.3567470000 0.6067230000
O -0.4479080000 -1.4047940000 1.8279530000
O -0.5438060000 -2.3039160000 -0.1623780000
N -0.1987670000 1.3513530000 -2.0357560000
O -0.0223290000 1.3631110000 -3.2537070000
O -0.1779670000 2.3393940000 -1.3078540000
Cl -3.2512520000 0.3564470000 0.2061880000
