18
-1 1
C 0.6061982859 -0.0316213951 -0.0471475435
H 1.5636516018 1.8114098984 -0.2882625178
Cl -1.8118221102 -0.2998769759 0.0290644039
Cl 3.0233099713 -0.0834794578 0.2996298446
C 0.5428240863 1.4985814669 -0.0696494347
C 0.7642791309 -0.7725590842 -1.3542120057
H -0.1705533469 -0.7615113807 -1.9074031973
H 1.5300496009 -0.2731086593 -1.9442934755
H 1.0789295450 -1.7977503256 -1.1632713278
C 0.5685022779 -0.7404173292 1.2053069941
N 0.5282943859 -1.3093439438 2.2369944223
C 0.1568829810 2.0837612949 1.2846451408
H -0.8452058059 1.7608817924 1.5702947836
H 0.8660555621 1.7743263597 2.0563164518
H 0.1756534664 3.1767538439 1.2193285494
N -0.2514430659 1.9490373558 -1.2114948598
H -0.1229393656 2.9500313565 -1.3044333202
H -1.2288072009 1.7580051830 -1.0224329083
