16
-1 1
C -0.6348590000 0.0193600000 -1.5359270000
C 0.1393390000 0.0317660000 -0.2358100000
Cl -0.0627730000 -1.3230130000 -2.5825440000
H 1.2236980000 0.0301800000 -0.3668470000
H -0.0575650000 -0.9040540000 0.2932530000
N -2.0658940000 -0.0783670000 -1.4496390000
H -2.2651970000 -0.8307620000 -0.7996200000
H -2.4112490000 0.7863280000 -1.0503280000
N -0.3182380000 1.3238170000 -2.2733550000
O -1.2000620000 2.1806750000 -2.2976850000
O 0.8165550000 1.4634740000 -2.7072100000
C -0.1982170000 1.1894680000 0.6944030000
H -1.2424860000 1.1835630000 1.0281910000
H 0.5103880000 0.9738350000 1.5188040000
H 0.0257040000 2.1620240000 0.2430100000
F 1.8458740000 -0.1733460000 1.8409050000
