18
-1 1
C 0.0591910000 0.1269340000 0.0359610000
C -0.4536340000 0.2395050000 -1.4025970000
F 1.4979010000 0.0117800000 -0.0255160000
H -1.5332600000 0.3886740000 -1.3054700000
C -0.1120230000 1.4259950000 0.7553000000
N -0.2851550000 2.4235630000 1.3531950000
N -0.5030930000 -0.9548830000 0.7003610000
H -1.4864100000 -1.2230420000 0.2847170000
H -0.5047850000 -0.8303690000 1.7031380000
C -0.2641220000 -1.0958230000 -2.1223550000
H -0.4508720000 -0.9645660000 -3.1944150000
H -0.9980560000 -1.7928310000 -1.7213160000
H 0.7530130000 -1.4725260000 -1.9879560000
C 0.2117960000 1.3934270000 -2.1448450000
H 1.2861610000 1.2177900000 -2.2399960000
H 0.0662290000 2.3512510000 -1.6366680000
H -0.2117140000 1.4801900000 -3.1500760000
F -2.6892060000 -1.4450360000 -0.4330170000
