17
-1 1
C 0.6254450735 -0.0793276205 0.0429401861
H 1.5368686448 1.6544466653 -0.7409203719
Cl -1.6917307554 -0.4017526527 -0.6981586298
Cl 2.8646270771 -0.1141101648 0.4695422719
C 0.6654689555 1.4472069855 -0.1130925948
N 0.9054286644 -0.8577766194 -1.2023484615
O 1.0894309904 -0.2005907953 -2.2215257450
O 0.9751006954 -2.0741217164 -1.1105569153
C 0.2109955183 -0.7715730053 1.3136064023
H 0.9972550300 -0.7346635372 2.0639017813
H -0.6825641300 -0.2924303832 1.7012952694
H -0.0154561346 -1.8087241084 1.0775969741
N 0.7665127946 2.0375475425 1.2265755949
H 0.6886567968 3.0438741188 1.1357941054
H 1.6955736913 1.8206371887 1.5714097506
C -0.4528344921 2.1046301353 -0.8023894291
N -1.1504684202 2.8908179670 -1.3294601886
