18
-1 1
C -0.2463206458 0.0276953379 -0.3103934862
C -0.1920323948 0.0423349212 1.2007621944
Cl 1.4896177521 -0.2186831108 -0.9854730254
H -2.5436290203 -0.4572798614 1.6098868128
H -1.4358792560 0.0020450184 1.4804452399
N -1.0094949329 -1.1169628451 -0.7709124605
H -1.9016997974 -1.0400989253 -0.2648785931
H -0.5691200213 -1.9496272466 -0.3923848430
C -0.8053420482 1.2633325925 -0.9788972971
H -0.8965640535 1.0541114013 -2.0459914598
H -1.7945460199 1.4590599435 -0.5542070665
H -0.1825537584 2.1374525242 -0.8133289365
N 0.4195266554 1.2477681154 1.7669871911
O 1.3991470055 1.1537289503 2.5149170289
O -0.1226288801 2.3340425553 1.4987764055
N 0.2881872936 -1.1296975292 1.8340812470
H 1.0396885451 -1.5931926317 1.3410902252
H -0.4948064232 -1.7505992100 2.0123408233
