16
-1 1
C 0.0191760000 -0.0086190000 0.0211860000
C -0.4933680000 -0.0679220000 -1.4208630000
F 1.4134370000 -0.2047400000 -0.0146400000
H -1.5892000000 -0.0926810000 -1.3920320000
C -0.1350480000 1.3765790000 0.5408580000
N -0.2256140000 2.4208970000 1.0711770000
N -0.5742610000 -1.0089260000 0.8185530000
H -0.4440180000 -0.8012940000 1.8007410000
H -1.5819820000 -1.0492690000 0.6181920000
N -0.0525230000 -1.4269880000 -1.9815290000
O 0.9668030000 -1.4377410000 -2.6751880000
O -0.7413160000 -2.4040600000 -1.7186930000
N 0.0178780000 1.0175580000 -2.1778660000
H -0.4618600000 1.0842170000 -3.0648200000
H 1.0067520000 0.8812850000 -2.3460240000
Cl -3.6225480000 -0.3871040000 -0.1631110000
