15
-1 1
C -0.0087100000 0.0078750000 -0.0074770000
C -0.4687580000 0.0463080000 -1.4806800000
F 1.3782430000 0.0230240000 0.0278300000
H -1.5719890000 0.0344890000 -1.4420970000
N -0.4474550000 1.2274760000 0.6105390000
H -0.1050610000 1.2386800000 1.5658980000
H -1.4683460000 1.1888760000 0.6425980000
N -0.4173940000 -1.2566600000 0.5368200000
H -0.0667710000 -1.3196440000 1.4871810000
H -1.4386050000 -1.2420140000 0.5779130000
C 0.0105330000 -1.1240240000 -2.2197080000
N 0.3929010000 -2.0296960000 -2.8606370000
C -0.0118780000 1.2666550000 -2.1497060000
N 0.3574220000 2.2156940000 -2.7329670000
Cl -3.4775610000 -0.0407780000 0.1324570000
