12
-1 1
C 0.8222998701 -0.0270692062 0.0282753556
H 1.6697675886 1.8634141299 0.5947952365
F -1.1647214904 -0.0705315577 0.1639006626
Cl 2.8103421210 -0.2402774285 -0.3657301406
C 0.7348564249 1.4747692308 0.1878047639
H 0.4707231445 -0.5381860952 -0.8433614820
H 0.6223391842 1.8786675818 -0.8218639437
N 0.7401717888 -0.8372127457 1.2587520511
O 0.8667572546 -0.2421603684 2.3258195736
O 0.6072158540 -2.0459153528 1.1229235470
C -0.3579435571 1.9937662331 1.0130710198
N -1.0844481831 2.6326355789 1.6785133562
