14
-1 1
C 0.0292380000 0.0033080000 0.0030190000
C -0.5092160000 0.0843110000 -1.4190390000
F 1.4227070000 -0.0329240000 -0.0473920000
H -1.6137620000 0.1349600000 -1.3319340000
H -0.2283310000 0.9313480000 0.5203790000
N -0.4505660000 -1.2006700000 0.5976430000
H -0.2188960000 -1.1888500000 1.5841740000
H -1.4713830000 -1.1827420000 0.5252080000
C -0.0915320000 -1.0518660000 -2.2282190000
N 0.2294860000 -1.9760870000 -2.8763130000
N -0.0635870000 1.3666780000 -2.0710580000
O -0.1450490000 2.3809170000 -1.3857720000
O 0.3055290000 1.3282400000 -3.2411370000
Cl -3.4829990000 -0.0930930000 -0.0958910000
