14
-1 1
C 0.5616076146 0.0086571375 0.0490580296
H 1.7511017944 1.6853207222 -0.3274224521
Cl -1.5794556046 -0.0773052637 0.1562202685
F 2.5126868752 -0.1170552263 -0.0235566005
C 0.7105403784 1.5270892546 -0.0558479943
H 0.6178579484 -0.5961651603 -0.8371036132
C 0.7952698099 -0.5808197050 1.3424155260
N 0.9051569673 -1.0308981623 2.4232299631
N 0.3725046323 2.2936694297 1.0955851812
H 1.0687941752 2.1110425691 1.8073877349
H -0.5344403615 2.0018731994 1.4429594496
N -0.0752213280 2.0061383761 -1.2591011426
O -0.8622077051 2.9351414948 -1.1361496684
O 0.1855648034 1.4301713343 -2.3134346817
