14
-1 1
C 0.0156800000 0.0018500000 0.0022370000
C -0.5861250000 -0.0064560000 -1.4035960000
F 1.4092360000 0.0818560000 -0.0554310000
H -1.7019390000 -0.0114730000 -1.1637440000
H -0.2063690000 -0.9849280000 0.4314090000
N -0.5128440000 1.1104260000 0.7170870000
H -1.5407720000 0.9808270000 0.6007090000
H -0.2828850000 0.9918810000 1.6974790000
C -0.1286630000 -1.1496980000 -2.1722270000
N 0.1920680000 -2.1116120000 -2.7655410000
N -0.2177070000 1.2530610000 -2.1213410000
O -1.0074470000 2.1890070000 -2.0500290000
O 0.8591010000 1.2779090000 -2.7205300000
F -2.8228080000 0.0836020000 -0.0592410000
