14
-1 1
C -0.1269280000 0.0444120000 -1.3689000000
C 0.1159200000 -0.2944770000 0.1111060000
Cl -1.7919470000 0.7185920000 -1.6135560000
H 1.1443970000 -0.6892270000 0.1089340000
H 0.6141410000 0.8774210000 -1.5485000000
C 0.0414470000 -1.0955240000 -2.2512170000
N 0.2171500000 -2.0037830000 -2.9770190000
N -0.7862400000 -1.3441300000 0.5633300000
H -1.7379710000 -1.0146110000 0.4337370000
H -0.6453450000 -1.4224060000 1.5653710000
N 0.1395390000 0.8826960000 0.9577420000
H -0.7673830000 1.3361710000 0.8775570000
H 0.8221540000 1.4992460000 0.4688870000
F 1.7105600000 1.8938810000 -0.9269370000
