16
-1 1
C 0.4797840524 -0.1500655414 0.1151358433
H 1.5827132321 1.5098977241 0.8885745680
F -0.9624204128 -0.2255196829 0.8080315214
H 2.1313078049 0.0730340872 -0.6335054455
C 0.7385123753 1.3548411985 0.2250618106
N 0.0236077398 -0.6389519641 -1.1664968159
H -0.7538944136 -1.2655431374 -1.0012086142
H 0.7840069180 -1.0920532761 -1.6442890742
N 1.1365527834 -0.9582391213 1.1265395004
H 1.9136237150 -1.4386131845 0.7049867593
H 0.4469209814 -1.6075728631 1.4858401209
N -0.4213674284 2.1151091936 0.9464868851
O -1.3795629874 2.5015153804 0.2869272530
O -0.2843774273 2.2703923027 2.1585663569
C 0.9265890419 2.0263147248 -1.0561905378
N 1.0604040254 2.6952041596 -2.0139301312
