18
-1 1
C -0.0664779595 -0.0174296417 -0.3746722532
C -0.1514757671 -0.0889816019 1.1284830952
F 1.2315456830 0.1734447647 -0.8080019044
H -2.3573394204 0.7464161014 1.8796535397
H -1.3003243557 -0.0976217257 1.4408071379
C -0.9389185626 1.0946763909 -0.9111291027
H -1.0120773806 1.0105284250 -1.9982931611
H -1.9201114610 1.0406876323 -0.4326263328
H -0.4889283382 2.0542293334 -0.6588500244
N 0.2791399442 1.0890131529 1.7887221005
H -0.5811952536 1.5776758345 2.0708793151
H 0.8914043908 1.6662205276 1.2307808511
N 0.5294933623 -1.2915142360 1.6680260118
O 0.8540549068 -2.1899540936 0.8761454662
O 0.6705490078 -1.3679094097 2.8869367565
N -0.5616462186 -1.2867776687 -1.0517344274
O 0.0789336411 -1.7204618637 -2.0003202918
O -1.6350762186 -1.7173719217 -0.6477667762
