16
-1 1
C -0.1397870269 -0.0770588028 -0.2994696941
C -0.2634931131 -0.1426333494 1.1605073215
F 1.1531516363 0.2862315778 -0.7811634967
H -2.4447808326 0.6975441018 1.8706499688
H -1.5193271824 0.1123564767 1.4638020148
H -0.0152918315 -1.1478637072 1.5192578793
C -0.5357506778 -1.3421293000 -1.0161825106
H 0.1761264201 -2.1211006647 -0.7371150398
H -1.5416868229 -1.6412628127 -0.7259585733
H -0.5020920465 -1.1978498819 -2.0974791115
N -1.0012123692 1.0795906445 -0.7870471194
O -0.5916862644 2.2183815396 -0.5622125011
O -2.1015172851 0.8135131572 -1.2754764935
N 0.3640651480 0.9145567457 1.9231784238
H -0.3852851957 1.5644210965 2.1799580693
H 1.0257374438 1.4227631788 1.3512408623
