15
-1 1
C -0.0582250000 0.0399580000 -0.0115020000
C -0.4380790000 0.2268910000 -1.4863890000
F 1.3403940000 -0.0853250000 0.0380840000
H -1.5306530000 0.3186610000 -1.4762560000
H -0.4921040000 -0.9016010000 0.3256320000
N -0.4756970000 1.0656380000 0.8803120000
H -1.4670200000 0.9038270000 1.0502720000
H -0.3626260000 1.9782050000 0.4528840000
C -0.0346940000 -0.9717440000 -2.3448820000
H 1.0447580000 -1.1266950000 -2.3076220000
H -0.3385760000 -0.8310340000 -3.3844820000
H -0.5399170000 -1.8596330000 -1.9585620000
C 0.1459000000 1.4663050000 -1.9995200000
N 0.6206310000 2.4604040000 -2.4077800000
Cl -3.3743770000 -0.4628580000 0.1450240000
