16
-1 1
C -0.0455430000 0.0225530000 -0.0431640000
C -0.3007080000 0.1053050000 -1.5555840000
Cl 1.7626760000 -0.1085480000 0.1766500000
H -0.0120510000 -0.8577560000 -1.9823100000
H 0.4101230000 0.8497600000 -1.9318030000
C -0.5929550000 1.1733050000 0.7511310000
H -0.2333070000 1.1387260000 1.7782860000
H -0.2835230000 2.1126320000 0.2838870000
H -1.6829140000 1.0197550000 0.7208720000
N -0.5494200000 -1.2944080000 0.5522060000
O -0.7091450000 -2.2381160000 -0.2103410000
O -0.6420990000 -1.3429330000 1.7707920000
N -1.6489630000 0.4541480000 -1.9538900000
H -1.7604650000 1.4532340000 -1.8167760000
H -2.2986150000 0.0291940000 -1.2474090000
F -2.8956550000 -0.2828340000 0.2012440000
