16
-1 1
C -0.3783881939 -0.0647190839 -0.1494149435
C -0.2207376742 -0.0801116806 1.2357077983
Cl 1.7492421687 0.0049336202 -1.1588087321
Cl -3.0548390900 -0.1911983667 2.1176494246
H -1.6458680223 -0.0743532970 1.5788283591
H -0.0197170854 -1.0838263843 1.6091197081
C -0.9489142814 -1.2736830643 -0.8193823592
H -0.4826598618 -2.1628344471 -0.3939744097
H -2.0312851427 -1.3166033936 -0.6540363043
H -0.7499837368 -1.2451265088 -1.8863446681
N 0.3673341953 0.9302820541 2.0573804573
H 1.3767775344 0.8311347447 1.9687113022
H 0.1300407428 1.8332025060 1.6708791422
N -0.8272502418 1.2014877433 -0.7855252653
O -0.6518191301 2.2655244765 -0.1865814907
O -1.3799121809 1.1199510815 -1.8818580188
