15
-1 1
C 0.5640687654 0.0054180958 0.0821941889
H 1.7706423201 1.7106091887 -0.2842314228
Cl -1.5147630926 -0.0999123151 0.1404645801
H 2.5894484942 -0.2569926269 -0.2553126467
C 0.7274308597 1.5307481360 -0.0399819425
H 0.7122403202 -0.5714865844 -0.8153557322
N 0.8343948697 -0.5173326354 1.4075240373
H 1.7519886945 -0.9348101870 1.3348184562
H 0.1324123493 -1.2120404527 1.6322584852
N 0.3466316455 2.2941747609 1.1172196528
H 0.7692040807 1.7884092566 1.8918359777
H -0.6559450785 2.1841201375 1.2334890042
N -0.0256444441 2.0159501739 -1.2484929210
O -0.8296116887 2.9363864805 -1.1317476921
O 0.2586619045 1.4608085713 -2.3086720252
