15
-1 1
C -0.0114120000 -0.0114280000 0.0028110000
C -0.4869920000 0.0370560000 -1.4487270000
F 1.3935700000 0.0980920000 -0.0086240000
H -1.5808080000 -0.0454130000 -1.4516940000
H -0.2163770000 1.0167820000 -1.8501170000
N -0.5290060000 1.1549300000 0.6560730000
H -0.3731980000 1.0626600000 1.6547070000
H -1.5442270000 1.1606180000 0.5162680000
C -0.3379810000 -1.3306460000 0.6767310000
H 0.1099250000 -2.1723620000 0.1428820000
H -1.4234260000 -1.4415570000 0.7146680000
H 0.0594960000 -1.3149160000 1.6957760000
C 0.1178650000 -1.0049220000 -2.2702970000
N 0.6049240000 -1.8411910000 -2.9345840000
Cl -3.6815130000 0.3539780000 -0.0229430000
