17
-1 1
C 0.0745690000 0.0398950000 -0.0105660000
C -0.4507280000 -0.0614860000 -1.4678830000
F 1.4422340000 -0.2881720000 -0.0128230000
H 0.3710380000 0.3480830000 -2.0739360000
C 0.0182970000 1.4521320000 0.4237070000
N -0.0013880000 2.5768080000 0.7620420000
C -0.6419080000 -0.8639190000 0.9659160000
H -0.3286340000 -1.8835690000 0.7411900000
H -0.3745980000 -0.6132860000 1.9955150000
H -1.7263400000 -0.8190220000 0.8063210000
N -1.6702130000 0.6787040000 -1.7377220000
H -1.6373320000 1.6234120000 -1.3707300000
H -2.4528040000 0.1570550000 -1.3114940000
N -0.6184360000 -1.4700500000 -1.7779020000
H -1.5385730000 -1.7265840000 -1.3894720000
H -0.7354930000 -1.5260530000 -2.7848040000
H -3.3506100000 -1.3135540000 -0.5765950000
