14
-1 1
C -0.4856370000 0.0879940000 -1.3883540000
C -0.1793010000 -0.2097730000 0.0783100000
Cl -0.2795430000 -1.6275360000 -2.2624240000
H 0.8468740000 -0.5859260000 0.1066180000
H -0.8580360000 -0.9971760000 0.4124910000
C -1.9049180000 0.3791570000 -1.6255790000
N -3.0397430000 0.6148070000 -1.8163950000
N 0.3297290000 1.0765350000 -1.8844640000
H 0.2462640000 1.2831480000 -2.8666470000
H 1.2810150000 1.1090360000 -1.5018820000
N -0.3849880000 1.0005770000 0.8611460000
H -0.4410420000 0.7382710000 1.8383190000
H 0.4595590000 1.5596780000 0.7607880000
Cl 2.9396720000 1.3923320000 -0.0674380000
