14
-1 1
C -0.1503833654 -0.0590805572 -0.3418275793
C -0.1063505316 0.0378842145 1.1610105177
F 1.1063618703 -0.1663869564 -0.9098959408
H -2.6130075988 -0.3876318144 1.3398748513
H -1.3118603590 -0.0563080907 1.4233425379
H 0.3386805703 0.9719823283 1.5069757118
N -0.9814776961 -1.0753119556 -0.8662662536
H -1.8580951806 -1.0174182707 -0.3209647034
H -0.5419987936 -1.9597808239 -0.6303300225
C 0.5483128629 -1.1089872074 1.7325173669
N 1.0437240271 -2.0635281615 2.2131250764
N -0.6769658921 1.3000607596 -0.8352591100
O 0.0749684935 2.2560838284 -0.6509259438
O -1.7873484070 1.3509527071 -1.3477365085
