14
-1 1
C -0.5340940000 -0.4847840000 -1.4518550000
C 0.0493510000 -0.1903120000 -0.0786030000
F 0.0649180000 0.2338170000 -2.4269610000
H 1.1355370000 -0.3530090000 -0.1471820000
H -0.3751440000 -0.9273820000 0.6119690000
C -0.4899460000 -1.9134350000 -1.8138020000
N -0.4168610000 -3.0552980000 -2.0788930000
N -2.0143210000 -0.0954710000 -1.4449760000
O -2.3874540000 0.7711810000 -2.2167710000
O -2.7022160000 -0.7088640000 -0.6354990000
N -0.1946290000 1.1887020000 0.2513380000
H -0.7096850000 1.2369460000 1.1223190000
H 0.7872490000 1.5637760000 0.4464430000
H 2.3121930000 1.5146190000 0.6864020000
