13
-1 1
C 0.2383360000 -0.3670700000 -0.1386090000
C -0.2688260000 0.1449640000 -1.5067250000
F 1.0196660000 -1.5196300000 -0.4735700000
H 0.6265490000 0.1943560000 -2.1401480000
H 0.9917250000 0.3449210000 0.2259020000
N -0.7825900000 -0.6571190000 0.7520110000
H -0.5863930000 -0.3258840000 1.6828210000
H -1.7149930000 -0.3127090000 0.3609520000
C -0.7815200000 1.5151460000 -1.3938370000
N -0.8709230000 2.6868200000 -1.3716580000
C -1.1800610000 -0.7942870000 -2.1688310000
N -1.6849660000 -1.6082010000 -2.8481030000
F -2.6805870000 0.3158200000 -0.5693920000
