10
0 1
C -1.6672860000 1.0112640000 0.0000000000
H -0.6362460000 1.3614920000 0.0000000000
H -2.1828060000 1.3614930000 0.8929070000
H -2.1828060000 1.3614930000 -0.8929070000
F -1.6672860000 -0.3717360000 0.0000000000
C 1.3338288000 -0.8223037600 0.0000000000
H 0.3027888000 -1.1725317600 0.0000000000
F 1.3338288000 0.5606962400 0.0000000000
H 1.8493488000 -1.1725327600 -0.8929070000
H 1.8493488000 -1.1725327600 0.8929070000
