12
0 1
C 2.1389600000 0.0375000000 0.0042100000
O 1.5597200000 1.1891700000 -0.3319800000
F 1.8916200000 -0.9393200000 -0.8986300000
F 3.4454600000 0.2085800000 0.0763100000
F 1.7074900000 -0.4355900000 1.1833300000
H 0.6114400000 1.0397800000 -0.4461400000
O -0.6456215000 0.0705143330 -0.7798225000
C -1.7443515000 0.0405043330 0.0113775000
H -0.4669015000 -0.8027856670 -1.1389425000
F -1.6270115000 -0.8596456670 0.9868875000
F -2.8403615000 -0.2648156670 -0.6820525000
F -1.8912015000 1.2377943330 0.5439475000
