12
0 1
C -5.0227231900 -1.0125834800 0.0005503100
H -4.6828738600 -2.0583771600 -0.0344047200
H -4.6815899600 -0.5192976000 -0.9218432900
H -6.1215666100 -1.0189391300 -0.0117594100
C -4.4917038900 -0.2953491500 1.2451867700
H -4.8708205100 0.7389129100 1.2719101400
H -4.8720212800 -0.7900780100 2.1532922300
C -2.9636409900 -0.2717856900 1.2883715600
H -2.5639820500 0.2506269400 0.4077732300
H -2.5648839000 -1.2961184400 1.2985942600
S -2.4099971100 0.6036682000 2.8087917300
H -1.0807972100 0.4848952200 2.5876178300
