15
0 1
O 1.6845326040 1.6688677513 0.6020717163
C 1.7137207823 0.4342061938 0.0792512109
C 0.3755867756 -1.3397456879 -0.0284305529
O 0.2542127341 -0.2607987134 1.0876152279
C -1.0793058799 0.0021137173 0.7015472914
C -1.2603434938 0.3735776061 -0.7397395186
C -1.0778647096 -1.0665777670 -0.3720238743
H 1.1528611834 2.2495398696 0.0515666744
H 1.6324081185 0.3784932266 -0.9939688334
H 2.4479300933 -0.2064711599 0.5408643997
H 0.4631919644 -2.2833328020 0.5185040032
H -1.7654883393 0.3147630203 1.4811787641
H -0.4870364686 0.8920801966 -1.2963182673
H -2.2698802401 0.6844567395 -0.9811606668
H -1.8236441241 -1.8132351909 -0.6122115744
