14
0 1
C -1.7661143191 0.1131762295 0.6158145018
N -0.4620389973 -0.1940947693 0.0622631954
C 0.0178868458 -1.4620213757 -0.2426206417
C 1.2943788360 -1.4508347187 -0.7654007280
C 1.6273748658 0.0192304363 -0.6349885744
C 0.4909907419 0.7018105607 -0.1648354871
O 0.2367936214 2.0028147571 0.0684638305
H -2.1580930342 1.0214305925 0.1621567769
H -1.7016720594 0.2531486853 1.6952460604
H -2.4346723373 -0.7170685554 0.4001365517
H -0.6501172890 -2.2977850734 -0.0882758796
H 2.0353080261 -0.8036740853 0.1782540293
H 2.4991626482 0.4907424700 -1.0675453661
H 0.9996324513 2.5230518466 -0.1906702691
