11
0 1
O 2.6082067410 0.1131694667 -0.0126264990
C 1.4082323252 0.1968754151 -0.0935107225
N 0.4712537588 -0.6992604262 0.4032101531
C -0.9279113235 -0.6781171099 0.0811394064
C -0.5529158047 1.4908243201 -0.5191980647
O 0.7432706127 1.2038142914 -0.8263739557
H 0.8854975516 -1.5828330566 0.6834981357
H -1.2370723775 -1.4999668967 -0.5823725329
H -1.5837981553 -0.5779568319 0.9517971214
H -0.6199086718 1.6481370133 0.5861915917
H -1.2126076566 0.3272508146 -0.6618616335
