16
0 1
C 1.2303703444 -0.1111889042 -2.0010524015
N 0.7634265858 0.2927386621 -0.6888413428
C 1.2446225860 -0.4636380841 0.4301161600
C -0.1657141780 -0.6153173154 -0.0444164389
C -1.2659496646 -0.0424324451 0.7400899477
O -2.2981581260 -0.7614919666 0.9902614279
C -1.4006745349 1.2020590201 1.3988584471
H 2.1761320592 0.3905307299 -2.2084359108
H 0.5028949100 0.1990583439 -2.7514941539
H 1.3842533803 -1.1968203530 -2.0881501630
H 1.9003260306 -1.3102301220 0.2438355774
H 1.4467315858 0.0940080787 1.3367775558
H -0.4084940554 -1.5526555692 -0.5387464390
H -2.2105542903 1.7829436948 0.9578551734
H -2.4228000257 0.1955907384 1.7956579340
H -0.5400366074 1.8061304921 1.6630616268
