14
0 1
O -0.4554901388 2.1847538380 -0.0788680180
C -1.3406346991 1.4216046407 0.3888297926
N -1.2204682024 0.7139055698 1.4840946898
C -0.3363767345 -1.2620065020 0.7369470759
C 0.9298603639 -1.6024853396 0.0724879481
C 0.9981997309 -0.2008184336 -0.3173429305
C 1.0181046170 0.9559587088 -0.7184132315
H -2.2476468999 1.2386729608 -0.2066153799
H -0.3502674239 1.0040157502 1.9322130019
H -1.2585283639 -1.3936450378 0.1940324125
H -0.4076247540 -1.3122486268 1.8092955532
H 1.7355222309 -1.9018422565 0.7387135703
H 0.8578836440 -2.2712136491 -0.7839334917
H 1.3898176295 1.7988343772 -1.2542949924
