15
0 1
C -1.5805005116 -0.2133769085 -0.4258525976
C -0.7266787429 -0.4048364823 0.8130140957
O 0.1243668594 -1.4610692960 0.4074692726
C 0.7593748504 -0.7313636317 -0.6636086583
C 1.5380478169 0.3052886569 0.1414511084
C 0.2032770169 0.8573366432 0.6078168968
C -0.3414272825 0.2057030845 -1.2437302245
H -2.0492495667 -1.1309635451 -0.7834750514
H -2.3148894484 0.5906157638 -0.3738245525
H -1.1454913025 -0.5996773142 1.7992217072
H 1.2592080368 -1.4044441939 -1.3536474611
H 2.1981914161 -0.1129523590 0.8998123656
H 2.0647594797 1.0216597139 -0.4888153543
H 0.0905530381 1.7322676687 1.2461641017
H -0.1207096599 1.3243491996 -0.5030276482
