12
0 1
O 2.1397836273 -1.4730684402 -0.2471269017
C 1.5966937844 -0.4395801967 -0.0344591123
C 0.4379806026 0.0850431520 0.5401660377
C -0.5148507021 1.1675256770 0.2349509650
N -0.9131148209 -0.2100646832 0.4898247553
C -1.5955760764 -1.0368308166 -0.3968341308
O -2.4688120003 -0.6518937079 -1.1187708803
H 2.3775521475 0.6484747098 0.1641592027
H 1.9732052228 0.5816339515 1.0358327442
H -0.6011521869 1.5074560713 -0.7924038975
H -0.7824645993 1.8832323974 1.0020409404
H -1.2717389987 -2.0864831146 -0.3229807224
