18
0 1
C 1.8161591688 -0.6051223707 0.4513223905
C 0.4711369929 0.1171141768 0.4819073426
C 0.5066571521 1.4007056077 -0.2527679191
C -0.6628159919 -0.8286783231 -0.0666122430
C -2.0536823163 -0.4952864851 0.4774732866
C -0.6823045392 -0.6272001466 -1.5532278800
N -0.2471511879 0.3913364816 -2.0310972045
H 1.7807431805 -1.5415724004 1.0114118119
H 2.6049377211 0.0140092138 0.8813664939
H 2.1000785426 -0.8431894282 -0.5771310576
H 0.1765201945 0.2975622746 1.5232123613
H 0.2803066145 1.2408131259 -2.1823181304
H 1.4879660818 1.8476562844 -0.3998479847
H -0.2601102061 2.1345922778 -0.0165170376
H -0.4271085594 -1.8671349354 0.1782785518
H -2.8110068686 -1.1430281301 0.0364033882
H -2.0752676519 -0.6299523311 1.5598154558
H -2.3211323277 0.5393861082 0.2531423743
