16
0 1
C 1.5680628880 -0.6256818669 0.8467744122
C 0.4049662714 -0.2366047326 -0.0139641185
C 0.3494822190 1.0544624293 -1.2841476103
C -0.2844892771 1.1043947736 0.0495168374
C -1.6686222493 0.4018475392 0.1750460990
N -1.9079546181 -0.4630311682 -0.9507627350
C -0.9969430404 -0.9167863822 0.0675018891
H 1.2374721267 -0.7470651683 1.8816834648
H 2.3437000230 0.1405232286 0.8268127967
H 2.0107214936 -1.5694301306 0.5228073715
H 1.3606899445 1.4684958206 -1.1836314367
H 0.6595744653 -0.2576866622 -1.2332690636
H 0.0377576458 1.8195470427 0.7962077156
H -2.4953740434 0.7236930501 0.7924979379
H -1.4271453884 -0.1203870239 -1.7819121941
H -1.1644804606 -1.8635247492 0.5648586341
