15
0 1
C 1.5975942185 -0.2587829205 0.5986943921
C 0.8367989441 0.9616220989 0.1811891158
O 0.9201473361 1.4953842045 -1.0953294967
C -0.2641874367 0.6577513636 -0.9628054843
C -1.1229687975 1.3600267656 -0.1464773398
O -1.5796180183 -1.7257448731 0.6652421008
C -1.2625945788 -1.8578516988 -0.4891838299
H 0.9922935924 -0.8604644876 1.2788284102
H 1.8456627360 -0.8534932177 -0.2771071390
H 2.5121451291 0.0399145822 1.1175739395
H 0.7878730944 1.7416639574 0.9421957255
H -1.9177060361 0.8154779318 0.3593958549
H -1.0939529640 2.4446403587 -0.0302582793
H -1.9561426943 -1.6342389346 -1.3172870137
H -0.2823495250 -2.2647431301 -0.7889519562
