7
0 1
O 0.0947137838 -1.1816465404 -0.7487812773
C -0.3362072087 -0.1676207858 0.4178619247
C 0.7544395450 -0.1992348426 1.2706458749
C 1.1152955023 -0.5847054628 -0.0790074364
C -1.3619886160 0.7327638162 0.0401841448
N -2.2219663765 1.4795199479 -0.2420634568
H 1.9417273701 -0.1540041325 -0.6586697740
