13
0 1
C -2.2416837196 0.4109472758 0.0332314025
C -0.6448081328 0.2983471747 -0.1499704423
C -0.7295989300 -1.0321667181 0.0063276511
N 1.5466381807 -1.7200033528 -0.8040037237
C 2.1583408072 -0.7801723824 -0.5308244013
N 2.8450604227 0.3314516746 -0.2741709307
O 0.0596264911 1.2810794304 -0.2111985089
H -2.5438618325 1.0010669057 -0.8314424656
H -2.8275895652 -0.5080423802 0.0707879805
H -2.3830988950 0.9501566007 0.9660867039
H -1.0341877400 -1.7134349593 -0.7770541848
H 2.2271245858 1.1298512501 -0.1775409317
H 3.5508323278 0.2467224808 0.4392408511
