15
0 1
C -1.2125906077 0.8947651192 0.3691277516
O -1.1134632593 1.0932264601 -0.8975350446
C 0.5142377925 0.4387109200 -1.2943667643
C 0.1081185890 -0.9839643999 -0.8435498980
C -0.1696165840 -0.7089756017 0.5982373071
C 0.9367399809 -0.2093477022 1.2706747790
O 1.3794058260 1.0079916521 -0.5940500328
H -2.1882810322 0.5595858415 0.7371126577
H -0.7081556351 1.5900510040 1.0472756284
H 0.4400160509 0.6787547309 -2.3578473226
H 0.9650325193 -1.6454040824 -0.9879121215
H -0.7461263530 -1.3659401189 -1.3968163300
H -0.9524588927 -1.2153012840 1.1499397905
H 0.8131987387 0.2713621850 2.2378449465
H 1.9531398664 -0.4055357238 0.9726166531
