15
0 1
C 1.9417443208 0.3954851424 -0.1748435189
C 0.5794305396 -0.2377458916 -0.3364325065
C -0.1037774566 -0.7893509138 0.9100409472
O -0.5613840472 1.2052148982 1.0089238974
C -0.6439005796 0.7341336593 -0.3437467200
C -1.7837066811 -0.2715034941 -0.4165857307
C -1.4084981509 -1.2503880962 0.4165721929
H 2.6863235486 -0.3624686377 0.0749544801
H 1.9309575443 1.1442061064 0.6157835024
H 2.2530043634 0.8742289106 -1.1053891267
H 0.5472806458 -0.9493619063 -1.1605634215
H -0.1039526567 0.1751809397 1.6745538605
H -0.6735313435 1.5666107604 -1.0532884471
H -2.7429094178 -0.1284569066 -0.8974664261
H -1.9777446292 -2.0863795708 0.7946770169
