11
0 1
O -1.3591161109 1.9661715473 -0.3293792306
C -0.7791900965 0.9186274637 -0.1972280427
C -0.9609539808 -0.4689558690 -0.5020488109
C 0.2809104481 -1.1440674113 -0.4429386445
C 1.2017373088 -0.3435436461 0.1692297997
N 0.5379697026 0.7998146672 0.5523739011
H -1.8739530876 -0.8394110976 -0.9405740360
H -0.6222009466 0.2472979720 1.0753924787
H 0.4483090522 -2.1661828571 -0.7436684603
H 2.1850799623 -0.5753000838 0.5428595400
H 0.9640247481 1.6275813146 0.9411415055
