16
0 1
C -1.3103215861 0.2593676763 0.8092005821
C -1.6042699646 -0.0475087861 -0.6451983718
C -0.1832080259 -0.0252814997 -0.1486507498
C 0.6517454682 -1.2994220531 0.0088085499
C 2.0663010510 0.4641525843 0.2691129341
C 0.8502828196 1.0347718025 -0.4911681528
H -1.5598162126 -0.5023697947 1.5494200327
H -1.4404386748 1.2848250875 1.1563231083
H -1.9305168244 0.7712569949 -1.2876103244
H -2.0504410985 -1.0150605039 -0.8825669730
H 0.7573944908 -1.8707564139 -0.9249655657
H 0.3919154651 -1.9534239164 0.8492214911
H 1.8056464132 -0.9461538508 0.1348354690
H 1.7756577277 0.5491767364 1.3456827193
H 1.0388327468 1.0833344994 -1.5754088813
H 0.5697482046 2.0381684374 -0.1371448677
