10
0 1
C -0.0467509474 -1.6912642275 -0.1935755088
C -0.5224575601 1.8059089297 0.5975357294
N 0.1082185315 1.0421075448 -0.1781705087
C 0.5971349629 0.0621524812 -0.7415198905
O 0.6954223176 -1.7780322592 0.7940961670
H -1.1136589277 -1.4180969222 -0.0854311427
H 0.1663340640 -2.2528520595 -1.1201552060
H -0.9456091449 2.7285269483 0.2196132227
H -0.6146879941 1.5359648402 1.6446277953
H 1.6697406984 0.0388607242 -0.9221446577
