10
0 1
O 3.0946394165 -0.1718370498 0.2767396473
C 2.0463313149 -0.5944543326 0.3539832567
N 0.4042892643 0.3494238806 -0.0965228124
C -0.5137402745 1.2316088372 -0.4724117343
N -1.7520483568 0.7426346215 -0.3839382896
C -1.5420961489 -0.4982820437 0.0706989340
N -0.2591085687 -0.7607370985 0.2514690828
H 1.0003124561 -1.3053620081 0.5329501646
H -0.2677281812 2.2266234971 -0.8081775622
H -2.3210999218 -1.2174913039 0.2712363131
