16
0 1
C -1.8896332514 -0.9385452481 -0.5001203561
C -0.6117929673 -0.1129007780 -0.5716268945
O -0.9261983636 1.2011019613 -1.0826196275
C 0.0983654693 -0.0680074917 0.7591101415
N 1.5156766363 -0.2949900397 0.6968422076
C 2.3011526894 0.6637562676 0.3172380449
O 1.7936202295 1.8136623184 0.0197040076
H -1.6669312174 -1.9895788299 -0.3046078075
H -2.4454823400 -0.8647194953 -1.4353208824
H -2.5305870563 -0.5747361845 0.3087554147
H 0.0372366556 -0.5245733535 -1.3549974762
H -1.4226058084 1.6404185870 -0.3854964344
H 0.8170733446 1.7022352240 0.2756883155
H -0.3259322996 -0.7330048917 1.5050008915
H 1.9488531269 -1.1528863732 1.0111596063
H 3.3761181526 0.5468543275 0.2742608492
