11
0 1
C 0.4869192941 1.3373326285 0.1269029806
C 1.5059346822 0.2271992784 0.1100820993
O -1.0596528815 -2.1395589982 -0.0457096223
C -1.8790559557 -1.2570717789 -0.2136376994
O -0.7194364906 1.2007090664 -0.0024923900
H 0.9171760307 2.3591002187 0.2734515771
H 2.0606985429 0.2327042721 1.0623062737
H 2.2478993081 0.4281999276 -0.6794154378
H 1.0416252923 -0.7505710170 -0.0461251679
H -2.1037125568 -0.8301240624 -1.2173310343
H -2.4842242656 -0.8362765351 0.6213764210
