14
0 1
C -1.4715595652 0.3997555621 0.3424270455
C -0.5424696996 -1.1117270608 -0.3699576311
N 0.3193954593 -1.3846654240 0.8055252594
C 0.2805358741 0.0329882688 0.8195524276
C 1.1110513917 0.5973099139 -0.3221287864
C 0.4734024439 -0.3921045394 -1.2933343494
O 0.6994830663 -0.6210011716 -2.4428979410
H -1.3008415637 1.4366313407 0.6536687397
H -2.1232505560 -0.0965811427 1.0540558287
H -1.9654539644 0.4711503261 -0.6223104122
H 1.2312542857 -1.7261965924 0.5159017315
H 0.1954153886 0.4933580975 1.7948079583
H 2.1892994809 0.5067785386 -0.1766840262
H 0.8779719585 1.6246178831 -0.6035188445
