14
0 1
O 2.1680714046 -0.0605141939 -0.0625820268
C 0.8562428763 0.0637039460 0.3677973050
C 0.0347776111 1.1898697143 -0.2209404565
N -1.2501229589 0.7550161996 -0.1031369005
C -1.2950812106 -0.5865818056 -0.3487764643
C -0.0137937063 -1.1494598196 0.0204014889
O 0.3931516816 -2.2924782507 0.0360915267
H 2.3207031106 -1.0067641265 -0.1852115735
H 0.7997293821 0.1810400737 1.4649662303
H 0.2546509764 2.2366655904 -0.0520370130
H 0.1956753500 0.6232944805 -1.5867852929
H -2.0263080013 1.3517804154 -0.3334469870
H -0.2114014307 -0.1923709483 -1.7659165370
H -2.2246980848 -1.1135582753 -0.4961542993
