18
0 1
C -2.5540058075 0.2761694485 -0.3705328825
C -1.1757600519 -0.3771801115 -0.3925047824
C -0.1486666568 0.2742274133 0.4985862801
C 1.4888486632 -0.9737415920 0.5212485216
C 2.5611489159 -0.3242675616 -0.0375225086
C 0.5729294353 1.4805023285 0.0169821308
N -0.2276324842 2.3676064076 0.1234547177
H -3.2475691555 -0.2752524323 -1.0086703844
H -2.4966043352 1.3065317082 -0.7214122774
H -2.9628437487 0.2919823712 0.6417657284
H -1.2735512683 -1.4137183944 -0.0542756253
H -0.7915160524 -0.4154705576 -1.4164232710
H -0.4262184458 0.3143406814 1.5492162920
H 1.4699068936 -1.1258590676 1.5948017479
H 0.9921519952 -1.7431512520 -0.0587440556
H 2.8012920680 -0.4421795531 -1.0873548908
H 1.6689970485 1.3153242812 -0.3157744510
H 3.3054759863 0.1684068820 0.5756277107
