19
0 1
C -0.7181551686 -1.6858697896 -0.6679120744
C -0.7313233320 -0.1690212560 -0.5074153980
C -1.2794201451 0.2987264526 0.8167916100
C 0.2283771362 1.9810400364 0.9327056567
O 0.5146474802 1.8132508072 -0.3674623426
C 0.6936985660 0.4508284608 -0.7044647823
C 1.7948662388 -0.2298593661 0.0891080143
H -1.7345982948 -2.0812146542 -0.6815749996
H -0.2335944608 -1.9831137543 -1.6017033353
H -0.1870316375 -2.1693392571 0.1548681114
H -1.3350418032 0.2570506098 -1.3116776689
H -1.3228685149 -0.4658609330 1.5941379361
H -2.2047937855 0.8623215831 0.7775092029
H -0.2455680120 0.9761392558 1.4344302474
H -0.4159796175 2.8673041154 1.0198633158
H 0.9520548434 0.4470160477 -1.7649452354
H 1.5202650718 -0.4028559118 1.1294888914
H 2.0402332816 -1.1902775941 -0.3656451712
H 2.6902441539 0.3929951475 0.0764940215
