17
0 1
C -1.8944850228 -0.3598206688 -0.6146564418
C -0.8245648886 0.3227531877 0.2134342651
O -1.1446761135 1.6209690131 0.6415694541
C -0.0441246930 -0.3930400699 1.1169548191
C 2.0530657191 0.0069979455 0.6790033017
C 1.9168283975 -0.2799174614 -0.6530738137
O 1.1560967187 0.4468883590 -1.3967962476
H -1.5544812995 -1.3409893833 -0.9483738048
H -2.8126633031 -0.4843626857 -0.0350504893
H -2.1348256595 0.2254346931 -1.5054133333
H 0.1583284725 0.4787508922 -0.7495783690
H -1.2622835031 2.1812227323 -0.1281745278
H 0.1473544490 0.0181672222 2.0979636593
H -0.0246653273 -1.4721588430 1.0489664002
H 2.6370798276 -0.6441454686 1.3176536873
H 1.9114346260 1.0271449676 1.0116821462
H 2.2547025997 -1.2411414319 -1.0535557057
