13
0 1
O 0.0810886233 -0.6188388404 1.7664060904
C 0.5162348997 -0.9474476920 0.5105006364
C -0.5472648197 -0.6792559616 -0.5775696933
C -1.0956461048 0.6725042186 -0.5529538001
C -1.5284816668 1.7874610630 -0.4872307742
C 2.2782739922 -0.5936552480 0.4091662341
C 1.7866250848 0.3722159144 -0.2014930373
H -0.2031898153 0.3014979687 1.7754724483
H 0.7121691266 -2.0135572821 0.4913558873
H -1.3594157064 -1.3845432832 -0.3817525800
H -0.1419390010 -0.9113838481 -1.5633275694
H -1.9283283226 2.7736445469 -0.4455338247
H 1.4223967099 1.2364894440 -0.7187810176
