16
0 1
C -2.0682488047 -0.8546272569 -0.3550191992
C -0.7069429305 -0.1960459847 -0.4758638485
O -0.9336228520 1.1414114577 -0.8720686170
C 0.0370200838 -0.2810989207 0.8590364468
N 1.4583720988 0.0659203903 0.8394057784
C 2.0239157578 0.8259301946 -0.0349971515
O 1.9768700690 1.4959017211 -1.0058408871
H -1.9756854889 -1.9108212108 -0.0973889862
H -2.6021423996 -0.7715152346 -1.3010733357
H -2.6616997002 -0.3551089545 0.4137392332
H -0.1181226381 -0.7223163777 -1.2403273145
H -0.1072934983 1.5255572040 -1.1801409203
H -0.4729753329 0.3671082166 1.5778346129
H -0.0167145644 -1.3035455367 1.2374331070
H 2.8060809643 0.2458630206 1.1169451520
H 3.3591912361 0.7761202717 0.5280129297
