17
0 1
C -0.9067658112 -1.3505600946 0.1854214402
C -0.8780524152 0.1478263029 0.0148280279
C 0.4536971546 0.8201806711 0.0079299024
C 1.5041724831 0.3939023731 0.8590949406
O 2.4300763847 -0.4643169113 -0.4660357760
C -1.9909671013 0.7915460627 -0.6784239262
O -1.9214763022 0.8287026250 0.7370524242
H -0.3243202847 -1.8428862233 -0.5954264737
H -0.4953883008 -1.6479001359 1.1521855889
H -1.9337689288 -1.7121286571 0.1418018603
H 0.4299657698 1.8807381367 -0.2241590410
H 1.4311203998 0.1424361803 -0.8188042932
H 1.3955616919 -0.4660041743 1.5079382246
H 2.2532619607 1.1068950979 1.1834183080
H 3.2606884686 -0.0375056597 -0.7115581683
H -2.7939943667 0.1851254673 -1.0921979965
H -1.8344658025 1.7451069392 -1.1777520422
