14
0 1
C -1.5447319526 0.7387357785 -0.3260618264
C -1.0181758436 -0.5984855790 -0.0776275458
C 1.2073207333 -0.2149190016 0.6674482327
N 2.0386470682 -0.8222556081 -0.3292949527
C 0.7991662325 1.1073294836 0.6135371201
N 0.1086903085 2.0610524819 0.3745447257
H -1.4761115315 1.1724782402 -1.3179464627
H -2.2066426376 1.2001717547 0.3987387557
H -2.2181184389 -0.4447578709 -0.5802564472
H -1.2264926527 -1.0980210162 0.8642309104
H -0.5144374255 -1.1622767636 -0.8574166373
H 1.2492424060 -0.7005031313 1.6427312573
H 2.0145371120 -0.2693050165 -1.1880446963
H 3.0184346220 -0.8654217516 -0.0322204337
