15
0 1
C 1.9531123882 -0.0345403665 0.1387134156
C 0.4690548997 0.0106614605 0.0300640778
C -0.5397294285 -1.1231064931 -0.2174395652
C -1.5188638760 -0.0991871233 -0.7408647769
C -1.7336713864 -0.1446676417 0.7604235476
C -0.5009935114 0.8032047513 0.8656323435
C -0.4449362772 1.0116652063 -0.6300286652
H 2.3504690516 0.9677661060 0.3099554991
H 2.2679998162 -0.6687596451 0.9710556361
H 2.4059439496 -0.4228429543 -0.7765754261
H -0.4284556617 -2.1230200420 -0.6273370248
H -2.2694760475 -0.2961606657 -1.4954082670
H -1.0935045364 -1.3582348672 0.8935237758
H -0.2414139985 1.4726684840 1.6733130713
H -0.2115003818 1.8845427907 -1.2186556415
