12
0 1
O -2.2164296011 -0.0035649685 -1.0336859315
C -1.6667918321 -0.0604375064 0.2597455494
C -0.2881613034 0.4663618226 0.3367644196
N 0.3811996725 1.4485116074 0.4444136764
O 1.5254401236 1.8386466755 0.4112309431
C 2.3717392119 -0.2244823392 -0.0479188183
C 1.3594629667 -0.9033400814 -0.0671656633
H -1.6199974663 -0.4377767105 -1.6477758912
H -2.3081691205 0.5450380715 0.9011815907
H -1.6676603545 -1.0813961641 0.6570026023
H 3.3340099397 0.2301552980 -0.0602924804
H 0.7997617636 -1.8096047050 -0.1517629969
