14
0 1
C -2.3036840116 -0.6487245686 -0.1607666307
N -0.2168566669 -0.1398725146 -0.0961702259
C -0.5372254768 0.8363596788 0.7018264014
O -1.7464828534 0.9725479894 0.9612621287
C 1.0429926030 -0.5001996296 -0.5464237140
O 1.1705039566 -1.4460446574 -1.2862051057
C 2.2337202102 0.3191251871 -0.0910559657
H -3.2189746235 -0.0776473090 -0.1150149222
H -2.0122097315 -0.9540071380 -1.1530485763
H -2.1937776946 -1.4109154394 0.5956062084
H 0.1880109759 1.5217729161 1.1486916113
H 2.1235712302 1.3635561141 -0.3885413188
H 3.1308747248 -0.0926051300 -0.5456822681
H 2.3330933575 0.2850865014 0.9956693777
