9
0 1
O -2.2324764323 1.2936838853 0.0901471243
C -1.8042564929 0.1896093759 -0.0302071149
C -0.3589164672 -0.2259945530 0.3259174791
N 0.5577487450 0.5673131188 -0.2110626512
C 1.8993754829 0.1590302896 -0.3520881558
N 2.1136534388 -0.5559684984 0.6140019376
O -0.2370268956 -1.2056549544 1.0361952833
H -2.4231599955 -0.6793254625 -0.3199846405
H 2.5328566167 0.5505897987 -1.1413332620
