10
0 1
N 2.2617161042 -0.1812863377 0.1120413078
C 1.0245737781 -0.1189284350 0.0492006605
C -0.0109746309 -1.1816419752 -0.0076857387
C -1.2332909212 -0.6294875234 -0.0668897660
C -0.9308108889 0.7817731942 -0.0458938220
O -1.9728001782 1.4703717203 -0.0939964618
O 0.3155874135 1.1537336539 0.0177565336
H 2.7081757592 0.7311862209 0.1381289464
H 0.2930941129 -2.2191245786 0.0040821339
H -2.4540935488 0.3267040608 -0.1226107936
