13
0 1
O 1.0195220078 2.1626535440 0.9924993290
C 0.8128139861 1.1726345911 0.4693193431
C 1.7905912954 -0.5521255510 -0.2521161352
O 0.9824816085 -1.1894279918 -0.9308406251
C -1.0694975787 -0.4427075572 -0.8184253757
C -1.4124371113 -0.4603257658 0.6121667095
C -1.0460322700 0.7410399710 -0.2206285409
H 2.0515542921 -0.8685581866 0.7706139173
H 2.5191431415 0.1235000296 -0.7300532611
H -1.2379321334 -0.9677862930 -1.7380863850
H -0.6673086274 -0.8166274683 1.3274262064
H -2.4402058529 -0.6514989990 0.9136181073
H -1.3733917576 1.7508626769 -0.4000782897
