10
0 1
O 2.6699243411 0.3744809556 -0.1079205125
C 1.6200738340 -0.1308422866 0.1065050197
O 0.4357732508 0.5963640089 -0.6987805428
C -0.7561201296 0.7619743888 0.0522218994
C -0.9311994541 -0.6607659960 -0.1465547483
O 1.1059133551 -1.0636799184 0.7211128556
H -0.5973047199 1.0807349878 1.0811148280
H -1.4412157250 1.4188795527 -0.4811501260
H -0.9700121504 -1.4003856993 0.6345424611
H -1.1358336019 -0.9767609936 -1.1610891342
