15
0 1
C 0.6993593405 1.0678964758 0.0716334750
C 1.3501759370 -0.2769361995 -0.2279948378
C 0.2619328097 -1.3212353272 0.0468800528
O -0.5771317293 -1.0428979237 1.1401691295
C -1.4460040923 0.0056572137 0.7054719698
C -0.6840168887 0.6198556283 -0.4546407612
C -0.2120684986 -0.6686671816 -1.2134208015
H 0.7153882079 1.3665529181 1.1222727402
H 1.1291207641 1.8683815842 -0.5293540887
H 2.3949338955 -0.5330404957 -0.0723578355
H 0.5723260815 -2.3603685054 0.0408165659
H -1.6005591188 0.7021064652 1.5317127487
H -2.4146016689 -0.4095533540 0.4010268852
H -1.2426489465 1.3428548498 -1.0431735809
H 1.2442149068 -0.2850131476 -1.4104146615
