15
0 1
C -0.3282921339 1.1714755037 -0.2460821401
C -0.3117630241 -0.3357035335 -0.1322795299
C -1.4795156702 -1.1311287798 0.3729470365
N 0.5643317082 -0.9684637973 -1.0920115959
C 1.1216019294 -0.6259818392 0.2068560189
C 1.5971192629 0.7615111657 0.2851212869
N 2.3326962897 1.6732584197 0.5730749113
H 1.1241798517 1.9455227894 0.1669788696
H -0.8797040473 1.6478952433 0.5684412271
H -0.6797406875 1.5437345689 -1.2105034364
H -2.3229793947 -1.0263853833 -0.3127512554
H -1.2277830339 -2.1894633129 0.4439040698
H -1.7969798500 -0.7740462479 1.3539758108
H 0.8677468760 -0.3316352127 -1.8202918230
H 1.5577559238 -1.4052075844 0.8193365498
