13
0 1
C 1.7179364318 0.5740948022 -0.1009086061
C 0.6684389879 -0.4877723974 -0.2883005608
C -0.4419796866 -0.6746528040 0.6791589333
C -0.7688776968 -0.1745059175 -0.7575039698
C -1.7941146654 0.6258949625 -0.2371956902
N -2.6681370961 0.5653730810 0.5690354775
H 2.1295825063 0.8975769119 -1.0585249791
H 2.5367558734 0.1849770290 0.5069901508
H 1.3025151402 1.4466656036 0.4062152258
H 1.0051781055 -1.3503157366 -0.8582758651
H -0.3454503931 0.1766927677 1.3531468632
H -2.0029508268 -0.5250453938 1.0366874045
H -1.1726696803 -0.8864269084 -1.4660063838
