12
0 1
O 0.0397626382 -1.3277850052 -1.1139965792
C 0.0654943363 -0.1893754643 -0.2755919238
C -0.8623989830 -0.3298692102 0.9376402983
C -0.1471093261 1.1791741329 -0.9617812016
O 1.1040434556 1.5960038719 -0.5759933231
C 1.4493817652 0.4036330888 0.0165247920
H 0.1060978693 -2.1088651098 -0.5313982553
H -1.8929467758 -0.4889422179 0.5901770055
H -0.5603571572 -1.1916664477 1.5519884701
H -0.9613113193 1.8843868366 -0.7376695616
H -0.8319770117 0.5620420614 1.5766137576
H 2.4139245085 -0.0121185365 -0.2911784789
