14
0 1
C 1.2610905515 -0.2786191229 -1.0708984399
O 0.0676685915 -0.6390744274 -1.2747418274
C -0.8542172214 -0.8183884260 -0.2407129800
C -0.4857613814 -0.5208641559 1.1707945843
C -1.2306667884 0.5883112731 0.4417590153
O -0.6475340449 1.6283270693 -0.0643671270
H 1.7394955539 -0.4679617813 -0.1219309886
H 1.6740012095 1.5651272753 -0.2374902311
H 1.8304771420 -0.0376616766 -1.9583656238
H -1.5884462600 -1.5538933551 -0.5298196612
H 0.5423082674 -0.3336294976 1.4521087481
H -1.0370607098 -1.0925705054 1.9070660206
H -2.2900771956 0.6553408627 0.7159594325
H 0.8563792857 1.6666564683 -0.0834389218
