15
0 1
N 2.7399773208 0.5900736971 -0.5362649814
C 1.5138765901 0.7285362559 0.0867124202
O 1.3775102189 1.3574333553 1.1162371804
N 0.4759581057 0.1060246315 -0.5601099364
C -0.8792873545 0.3323809139 -0.1611689677
C -1.2813375015 -0.2115165586 1.0845478006
O -2.2444892377 -1.5798221749 0.3391715178
H 3.5155462186 0.8516862482 0.0468575814
H 2.8951485339 -0.2169626291 -1.1147800565
H 0.6392225366 -0.2146365607 -1.4975738673
H -1.7791852634 -0.7910062741 -0.4387287037
H -1.2861138600 1.3104906612 -0.4095032551
H -2.0600429765 0.2810024911 1.6544074026
H -0.5970998550 -0.8193431641 1.6611117741
H -3.1988664760 -1.4928288926 0.4554500912
