15
0 1
C -1.9783785886 -0.3807249716 0.1648329133
C -0.5181783242 -0.4198353704 -0.1206202381
O -0.1459094930 1.1713774783 -0.7887082849
C 0.4491424178 -0.2687347653 1.0179791301
C 1.6984860087 0.0916198771 0.2086854272
C 1.0690099671 0.3779070179 -1.1268335166
O 1.4503908006 0.3372234910 -2.2481005989
H -2.2803021820 0.4303872290 0.8415977174
H -2.5882447524 -0.3453611503 -0.7398633728
H -2.2088825049 -1.3302151339 0.6588853328
H -0.6216702382 1.2376245574 -1.6279621437
H 0.1877191005 0.4860168826 1.7726326737
H 0.5450067770 -1.2342398234 1.5180945609
H 2.2384242020 0.9744330327 0.5598103677
H 2.4000358095 -0.7312903510 0.0922390322
