11
0 1
O -2.3750917540 -1.3816710527 -0.0494341054
C -1.8605869441 -0.3008807715 0.0639210557
C -0.3956814276 -0.1203325358 0.0556350730
C 0.3416639744 1.0456071893 -0.1304872829
N 1.6308703414 0.8810641170 -0.9664719023
C 1.6871125064 0.1628056370 0.0687275184
N 0.5274372968 -1.0808845690 0.1585389991
H -2.4551593230 0.6283908591 0.1381339298
H 0.1161646184 2.0630953298 0.1465775206
H 2.3918078093 0.0311571379 0.8851406713
H 0.4120509021 -1.9429753410 -0.3698864773
