13
0 1
C -0.8698095908 -0.3157798045 1.2332294550
C -0.6229719042 -0.7394806290 -0.2069408702
N -1.1496715532 -0.1008765776 -1.2618805129
C 0.5731927077 -0.0010858758 -1.0198960610
C 1.2070311694 1.0630338821 -0.1702044162
O 2.3658205146 1.0376104281 0.1276432895
H -1.1061645328 0.7448505058 1.3082048300
H -0.0254587570 -0.5593291289 1.8817974828
H -1.7332836628 -0.8783534734 1.5924637257
H -0.4159443744 -1.8225932416 -0.2751009500
H 0.1891564606 0.5053576004 -1.9371379270
H 1.2479337593 -0.7894058172 -1.3467570266
H 0.5341417636 1.8876321317 0.1285109811
