17
0 1
O 2.4348700337 -0.5348370496 -0.3439438543
C 1.0414737941 -0.6214048334 -0.4320599282
C 0.2833083966 -1.7855690280 0.2277853597
C -0.8653881374 -0.7949643675 0.5117887537
C -1.4520510100 2.0604316582 -0.5385056949
C -0.2218853344 1.6640029590 -0.2489626241
C 0.1478713574 0.3592938555 0.3660193442
H 2.6901639908 -0.6268671326 0.5766727796
H 0.8025515011 -0.5580219109 -1.4959196452
H 0.7782695456 -2.0920907064 1.1533205491
H 0.0773931361 -2.6700932942 -0.3733910424
H -1.3942911808 -0.8845049148 1.4589789635
H -1.5926494430 -0.7893240015 -0.3013722700
H -1.6405109008 3.0238228262 -0.9960469479
H -2.3166244668 1.4411089933 -0.3252699314
H 0.6140772952 2.3221331264 -0.4766233914
H 0.6343534225 0.5340598199 1.3343845800
