16
0 1
C 2.0410904151 -0.5937924689 -1.0470714096
N 0.8687299026 0.2504014531 -0.9129427682
C 0.5296687272 0.6879114815 0.2850726620
O -0.4978325214 1.5675321817 0.3911925271
C -1.7616261913 0.9047011433 0.5552399003
C -1.4775283813 -0.5727658921 0.2383015071
O -1.3425879148 -0.8711926832 -1.0071656816
H 1.8111809970 -1.6311698984 -0.7885920768
H 2.3897673522 -0.5630908215 -2.0779321061
H 2.8416467677 -0.2360707669 -0.3986372050
H 1.3038765664 0.7572223225 1.0486764059
H -2.1062785291 1.0584831085 1.5825443676
H -2.4736318583 1.3327101388 -0.1509676802
H -0.3299877643 -0.5176904300 0.8002433374
H -1.9938811731 -1.3062492585 0.8796250060
H -0.0258133944 -0.1194916101 -1.3815237859
