10
0 1
C -1.5751876536 0.0682961783 0.0621468370
C -0.0619138851 0.0560866226 0.0599970598
N 0.6834403182 0.7566378906 0.8110013436
C 2.3715216001 -0.0768201963 -0.0659595949
N 1.8314128461 -0.8371562850 -0.8796553785
O 0.4034772057 -0.8406693258 -0.8926943448
H -1.9428540428 0.7708101217 0.8131531269
H -1.9532250093 -0.9386953660 0.2807991227
H -1.9441121956 0.3601081620 -0.9295743340
H 2.1804598163 0.6883991980 0.7477711621
