13
0 1
C -1.9487324018 0.5377351142 -0.2176507733
C -0.5457439349 0.1391017210 0.1762568374
C -0.1321600302 -1.1453885380 -0.1815349679
N 1.1433774137 -1.7277218712 0.3522907041
C 1.7294431419 -0.7578644905 -0.0620092806
N 2.3831510313 0.3115861793 -0.3458644557
O 0.1730036186 0.9772131554 0.7818416030
H -1.9119788069 1.4491013461 -0.8162219752
H -2.4731436816 -0.2402415178 -0.7726570440
H -2.5099010899 0.7643070789 0.6904380039
H -0.6842495427 -1.8172779145 -0.8187830356
H 1.8218803303 1.1206755564 -0.0049733956
H 2.9673659525 0.3589841806 -1.1645502204
