11
0 1
O -2.7769916910 -0.9490686970 -0.0653360174
C -2.3177264177 0.1624011358 -0.0482073832
C -1.0035457971 0.4596682619 0.4626744787
C 0.1461044438 0.9014811658 0.0167448874
N 1.3857374157 0.8990347866 -0.2219287661
C 1.9391363412 -0.3864425479 -0.0652657058
N 1.2267932226 -1.4000956843 0.1750229890
H -2.8900848733 1.0548190400 -0.3712698456
H -0.5019230732 1.8889109521 0.0175228747
H 3.0236956435 -0.3903218585 -0.1754141004
H 1.7776107854 -2.2450355544 0.2759195888
