13
0 1
N -1.2425544231 -0.4694538816 -1.2291772297
C -0.2454393562 -0.1768831275 -0.4049677903
O -0.4641573195 1.2840520121 0.9081483569
C 0.1964564005 -1.0772848768 0.7263238874
O 1.1513417750 -0.2552711134 1.3493007865
C 0.8245370055 1.0166670165 0.7521632248
N 0.8456741183 0.6166125136 -0.7204921029
H -1.5050235187 0.1899297941 -1.9403372170
H -1.9587656855 -1.1011339515 -0.9173700713
H 0.6712195316 -1.9819635247 0.3351025659
H -0.6412388183 -1.3395559418 1.3771867833
H 1.5810630223 1.7419942560 1.0589587119
H 0.5669592681 1.4245818251 -1.2654359052
