11
0 1
O 1.4802616871 -1.0372461749 -0.7234834797
C 1.1381562133 -0.1436817783 0.1214358867
N 1.0452881228 -0.1480274296 1.4518654150
C -0.7412529717 -0.5044575012 -0.3666055570
C -0.7066771387 1.0014792658 -0.3374793350
O 0.7033686697 1.1727982742 -0.4547499837
H 1.3487032477 -1.0852913930 1.7593141375
H -0.7039281187 -0.9960800664 -1.3338349744
H -1.1391984718 -1.0866536242 0.4624818581
H -1.1059236354 1.3965768318 0.6080828605
H -1.2291366043 1.4458745957 -1.1990988279
