10
0 1
N 3.0509960139 -0.8128461062 0.0399870925
C 1.9365141503 -0.5568765656 -0.0377206881
C 0.5451950704 -0.1996350770 -0.1101216068
C 0.0499546453 1.0450511324 0.3472158457
O -1.2337002677 0.9848803404 0.4159306527
C -1.6428874414 -0.3073483230 0.0590533505
C -0.6343128753 -1.1796700218 -0.2161717898
H 0.5361989907 1.9714475439 0.6142004680
H -2.7117333984 -0.4280415777 0.1254893495
H 0.1447921122 -0.2819363453 -1.1982306741
