11
0 1
N 1.9149744552 1.2624274815 -0.2301028442
C 1.0691761037 0.3796989149 -0.1766561589
C 0.5974473010 -1.0493253001 -0.1090719938
C -0.8000295607 -0.5082898367 0.4203522047
C -0.3620551501 1.0665987836 -0.1102222919
O -1.9096097269 -0.7884939022 -0.1484868833
H 1.1715618660 -1.7499852916 0.5098820665
H 0.4823466244 -1.4434550305 -1.1284864385
H -0.7634722089 -0.4023566497 1.5314162687
H -0.5318326177 1.8917438605 0.5869160137
H -0.7402960860 1.2609089702 -1.1201429432
