14
0 1
C -1.6588783131 0.2188932838 0.2487388859
C -0.5098932817 -0.7093818093 0.2321232139
C 0.9168476135 -0.0088212449 0.2635246951
N 1.9572669035 -0.9545224770 -0.0852732191
C 0.7915144718 1.2840490025 -0.5610724175
N -0.3188876109 1.7643776997 -0.7463822762
H -1.9350011474 0.6716332972 1.2043679331
H -2.5045994616 -0.0031190822 -0.4058183862
H -1.2977840850 1.9510555810 -0.9047673143
H -0.4852467059 -1.3684056210 1.1139914139
H -0.5322528004 -1.3516608902 -0.6609111244
H 1.1160687787 0.3490275219 1.2882685910
H 1.9079640149 -1.1535861780 -1.0877309461
H 2.8755096233 -0.5386510836 0.0796659508
