15
0 1
C -1.0698198408 -0.9770306085 -0.6147674781
C -0.1135772981 1.1007919813 0.0225514673
O -1.0247449442 2.0040753608 0.1326816651
C 0.6517991555 0.5944466836 1.1807430465
C 1.2665131676 -0.5405291268 0.3383271364
C 0.3420176076 -0.3084927161 -0.9089394573
O 0.7223155978 -0.3439588439 -2.0868972092
H -1.4767007344 -0.8775561136 0.3960219598
H -1.7897667916 -0.6076234338 -1.3443178162
H -0.8980756947 -2.0379249957 -0.8064079244
H -1.3772376579 2.2181682487 -0.7435527927
H 1.3777861158 1.3599934560 1.4722405992
H 0.0655274364 0.3349841972 2.0654936205
H 2.3048033109 -0.3486984053 0.0747134875
H 1.1742605703 -1.5394906839 0.7650716955
