8
0 1
O -1.9108147791 0.3138638527 1.0724789641
C -0.6222525466 0.4268598290 0.8642078396
C 0.0837725217 0.4089026512 -0.4382752814
O 0.0571140118 1.4152143040 -1.1517787647
C 0.9914431240 -0.7842933445 -0.6912814722
O 1.0212633489 -1.7347076836 0.0719483861
H -1.1981505928 0.6193023857 1.9770214983
H 1.5703729121 -0.7344939945 -1.6423571698
