12
0 1
N 2.2157519045 -0.1661903453 0.0123995860
C 0.8614140787 -0.0323601127 -0.0370408950
N 0.1970226214 -1.2401073641 0.2221305862
C -1.0931757540 -1.2338301217 0.1503678420
C -1.8928520075 -0.0302640027 0.2160625323
C -1.0898041936 1.1482925247 -0.0829329177
N 0.3102110994 1.0816100649 -0.3547173382
H 2.7589459151 0.5924149210 -0.3584515505
H 2.5855683587 -1.0960787052 -0.0630983201
H -1.5857080921 -2.2043700762 0.1320053763
H -1.2235881355 1.6802396614 0.8855659549
H -1.6116537950 1.8388325558 -0.7564148561
