19
0 1
C 1.6373541853 0.9351774275 0.6200337079
C 0.7572117638 -0.2813403666 0.5342712435
C 1.3766603226 -1.0495195220 -1.1679224352
C -0.6884458569 -0.0141206955 0.6487443230
C -1.9286528059 -0.7702237159 0.3266591353
C -1.6853865610 0.6427511915 -0.1891752858
O -2.4071517544 1.7474186203 0.2834198221
H 1.5453224273 1.3384125459 1.6293108184
H 2.6833457848 0.7084061979 0.4148668733
H 1.2933710772 1.7003934131 -0.0757466268
H 1.0551122990 -1.1430896666 1.1200426182
H 2.3404033725 -1.4105067279 -0.8236000713
H 1.4867031144 -0.2687557008 -1.9183447133
H 0.7755555742 -1.8818170089 -1.5381207649
H 0.1204376945 -0.5276276293 -0.4513728143
H -1.9490028756 -1.5577718315 -0.4300791861
H -2.6609185833 -0.9189006129 1.1150467485
H -1.5751757443 0.7309212853 -1.2711929928
H -2.1191204342 1.8869947963 1.1889216004
