12
0 1
O 0.1081269717 -1.3763454932 -1.2843924566
C 0.0735798690 -0.4091407514 -0.2868110811
C -1.1561687180 -0.0742204484 0.5347873737
C -0.5060369295 0.9790931575 -0.3284479937
O 0.6295718999 1.5581687562 0.3407744684
C 1.3100020108 0.2603236409 0.3172749730
H -0.0625316699 -2.2392579802 -0.8606809719
H -2.0787264315 -0.4866032795 0.1224768406
H -1.1144584343 0.0116403123 1.6230879955
H -1.0011362083 1.5544351942 -1.1092398815
H 1.6427920545 -0.0560519811 1.3178360269
H 2.1549855856 0.2779588726 -0.3866652932
