14
0 1
C -2.0749264307 0.3289733773 0.0561187965
N -0.8279550494 -0.3801945934 -0.2396169736
C 0.3145007580 0.4602226682 -0.3886889533
O 0.2628372043 1.5400617688 -0.9692770970
N 1.3368290441 0.4007461155 1.0415552339
C 1.6770284178 -0.4714274737 -0.4846832263
H -2.0849607804 0.8207010328 1.0463942787
H -2.9041695857 -0.3887742013 0.0048233375
H -2.2198433390 1.0958212418 -0.7106093173
H -0.6827807535 -1.1708549418 0.3865899332
H 0.9942701842 -0.4258450742 1.5742002493
H 2.4180596564 -0.3017840919 0.4204672604
H 1.4599046573 -1.5353191991 -0.5471893696
H 2.2555290166 0.0242583711 -1.2602421523
