14
0 1
O 2.3444427937 -0.6905778540 0.6938468061
C 1.1484941272 -0.1787582626 0.4477333119
C -0.4318785044 1.5538237303 -0.5415527283
N -1.2034228355 0.6181500329 0.1786982698
C -1.1348191633 -0.6041292009 -0.5810882932
C 0.2699227603 -1.0630738888 -0.2641538927
O 0.6440177163 -2.2227876466 -0.4658836445
H 2.3019664980 -1.5974435891 0.3217829009
H 0.9452505814 0.7481143827 0.9431070586
H -0.1287278914 2.4569384312 -0.0241825356
H -0.0080499965 1.3138566841 -1.5133197423
H -1.6718385927 1.5705682524 -0.5942935257
H -1.2855147418 -0.4736429778 -1.6621514004
H -1.8427357513 -1.3443820936 -0.2109975845
