16
0 1
C -1.5420107372 -1.3735923852 -0.2359373085
C -0.6740334733 -0.2471750874 -0.7436001203
C -0.5793239513 1.9005041359 0.0267945591
C 0.8817105051 1.4572001046 -0.0241225202
C 0.6483577451 -0.0169152349 -0.0702702000
N 1.2780374161 -0.9711471645 0.4680787819
O 2.4515035109 -0.5438375909 1.0757606906
H -2.5006781457 -1.3938548996 -0.7547309308
H -1.7208132610 -1.2751125749 0.8352287159
H -1.0407133829 -2.3287558238 -0.3995129880
H -0.5402072513 -0.2811274920 -1.8304780339
H -1.2321337995 0.7907525877 -0.6926373923
H -0.9497310673 1.5651211614 1.0145677419
H 1.4498044737 1.7490914261 0.8612956803
H 1.3972072998 1.8281128821 -0.9129949335
H 2.7978891186 -1.3491150445 1.4646842578
