10
0 1
C -0.7081540482 -0.5019296438 -0.6051353789
C -0.5606162578 0.8168721508 0.1166470049
N 0.8637259096 0.9293744367 0.4621002131
C 1.4092664203 -0.0113806300 -0.1616526449
O 0.5782382808 -0.8564816759 -0.8808050915
H -0.8926922907 -1.4016304464 0.8548441599
H -1.3000550613 -1.4468837898 0.0782481942
H -0.7911412930 1.6100878660 -0.6040005536
H -1.2143629403 0.9526029693 0.9736879194
H 2.4634172807 -0.2453562370 -0.2242398228
