16
0 1
C 2.3730091813 0.4287403514 2.4060032548
C 1.7160036403 0.8430568295 1.1485059856
C 1.1516501371 0.1509707461 0.2199129484
C 0.1811689271 -0.2380794813 -0.6892758945
C -1.2639364933 -0.0848362105 -0.4610282772
C -2.1673737744 0.2081824473 -1.6093057765
N -2.1475432721 -1.1140479852 -1.0148894431
H 1.8489178146 0.9136806580 3.2347853084
H 3.3947611607 0.8116393375 2.4475738633
H 2.3872737888 -0.6517118105 2.5983964291
H 1.3645562184 -0.9965939136 0.0944529136
H 0.4827161324 -0.7471366468 -1.5991815776
H -1.5322870397 0.3558275279 0.4924370215
H -1.7506020938 0.2693660986 -2.6078169236
H -3.0076672021 0.8672096093 -1.4207042175
H -2.9456921253 -1.2570525578 -0.4091736150
