16
0 1
C 2.1907992552 -0.5286104197 0.2351573433
C 1.1213246430 0.4450914347 -0.2137497385
C 0.2866596505 0.0863469838 -1.4628735183
N -0.9155959501 0.0353298472 -0.5723274107
C -2.6692069851 0.0288543869 0.7839529107
C -0.2344311223 0.3314575725 0.4849666940
O -0.7431565849 0.4369055922 1.6144973174
H 1.8081625281 -1.5515768899 0.2312507899
H 2.5210643474 -0.2965150738 1.2488435658
H 3.0586838669 -0.4870827744 -0.4258040821
H 1.4886491748 1.4728671781 -0.2194833402
H 0.2237885619 0.8553649729 -2.2342269499
H 0.5288027864 -0.8764232336 -1.9173964683
H -2.8829565876 1.0776597076 0.9192737380
H -3.0584809210 -0.4251280671 -0.1101403812
H -2.6844726633 -0.5795412172 1.6740215301
