16
0 1
C -1.8166752119 -1.2251902344 -0.2933557198
C -0.6236649734 -0.3470986247 -0.6211144803
C -0.5517101641 1.0563893859 -0.0079966876
C 0.9606224230 1.1878243975 0.0512426401
C 0.6820292352 -0.7741997569 -0.0443762077
N 1.4501912595 -1.5463838386 0.4191197391
O 2.5405977370 0.0326244373 1.0457538638
H -2.7290444478 -0.7783485462 -0.6929607984
H -1.9312392024 -1.3351598252 0.7860060969
H -1.7046924832 -2.2194343756 -0.7263143843
H -0.4833238817 -0.2790398316 -1.7042574795
H -1.0459013243 1.8635202843 -0.5584252141
H -0.9660528075 1.0327553557 1.0019416232
H 1.3675308719 1.8734968691 0.7787345162
H 1.4576407562 1.2594068749 -0.9098707318
H 3.3974252135 0.1879504283 1.4861302242
