14
0 1
O 1.9213612047 1.1486728368 0.0237857369
C 1.3137990101 -0.1143090363 0.2294257663
C -0.1604233098 0.1187873480 0.4721697349
C -0.9615962159 0.5776176760 -0.7435615757
O -2.0310048073 -0.4099790716 -0.7009713150
C -0.9684935021 -1.1660460569 0.5893911811
H 2.8578483427 1.0239087173 -0.1332249452
H 1.7543596805 -0.6302807837 1.0924212843
H 1.4345425805 -0.7646856052 -0.6465659487
H -0.2765240325 0.8126007781 1.3090475735
H -1.4171091798 1.5610005973 -0.6562070646
H -0.4157957748 0.5187883590 -1.6888527060
H -1.6382293291 -1.1979324453 1.4495268233
H -1.5067626670 -1.3452693135 -0.6983265452
