16
0 1
C -1.5048918100 0.3219155228 0.7722648165
C -1.7064460163 -0.0568224020 -0.6818858724
C -0.3248311216 -0.0009447673 -0.1020595876
C 0.6671271129 -1.1483533337 0.1453771627
C 1.8004221132 -0.0788613585 0.2130938949
C 0.8281243494 0.9639934882 -0.4201903140
H -1.7928013104 -0.4025435200 1.5357201019
H -1.6641296939 1.3639362574 1.0543942160
H -2.0035175770 0.7284782411 -1.3788507491
H -2.1278476556 -1.0390927376 -0.9017317170
H 0.7678736579 -1.8066544693 -0.7297923871
H 0.5046161772 -1.7650937765 1.0400763686
H 2.7233940548 -0.2975217512 -0.3384746648
H 2.0567484586 0.1789140388 1.2484367914
H 0.9880413994 1.0804834248 -1.5018981422
H 0.7881178616 1.9581671431 0.0455200822
