14
0 1
N -2.5152625428 -0.2764907050 -0.0306772221
C -1.1213290954 -0.0486047820 0.0003191540
C -0.0362630697 -0.8784373108 0.1529193514
C 1.1279357797 -0.0651192860 0.1091693132
N 2.4425060892 -0.5264459887 0.2925343979
C 0.7150334235 1.2309386216 -0.0697904722
N -0.6599838896 1.2198489188 -0.1283141588
H -2.7979517360 -0.7921214420 -0.8520138448
H -2.8308161191 -0.7798827323 0.7855449878
H -0.0727202392 -1.9490404696 0.2874027410
H 3.1359309092 0.1282955682 -0.0331284784
H 2.5980098956 -1.4236450913 -0.1401185020
H 1.2780208956 2.1461908071 -0.1458149019
H -1.2631103009 2.0145138922 -0.2280323653
