16
0 1
C 2.6280078332 0.7189616898 0.1926670324
C 1.6033398962 -0.3303837023 0.4562658602
C 0.3392046188 -0.3577635657 0.2105174083
C -0.6961485633 -1.5475111059 0.2057171676
C -1.8535466971 -0.7468524141 -0.2039609996
C -1.8577864882 0.5288082100 0.5344774748
N -0.6017097576 0.6830571591 -0.1799288903
H 2.3405744341 1.5216280525 -0.5035326192
H 3.5485083132 0.2735310442 -0.1931063531
H 2.9079054663 1.1891296993 1.1402310375
H -0.7986813829 -1.9459778748 1.2178050425
H -0.4186737806 -2.3397394981 -0.4842646718
H -2.4353632014 -0.8721874271 -1.1063622747
H -1.7538268477 0.4820706534 1.6219276799
H -2.6052545393 1.2536546062 0.2226235096
H -0.3355243038 1.5820304734 -0.5678394045
