15
0 1
C -1.3075505585 -1.1953197727 0.4512029314
N -0.0813684135 -0.5064589430 0.1306239204
C 1.1713749660 -1.0023823739 0.1559249616
C 2.0726342697 -0.0416429437 -0.2247573513
C 1.4038553459 1.1756238282 -0.5835133856
C 0.0296445266 0.8510122718 -0.2436025445
N -1.1282232794 1.4970901740 -0.7290011566
H -2.0803264204 -0.8890565559 -0.2542067009
H -1.1540820193 -2.2695630921 0.3612893740
H -1.6446172640 -0.9732825104 1.4671087709
H 1.3404998485 -2.0197441188 0.4866225294
H 3.1404292013 -0.1970873504 -0.2718180781
H 0.6015893717 1.4427112000 0.6295846526
H -1.7312329861 1.8639974655 -0.0079299177
H -0.8586985883 2.2385847212 -1.3579830058
