13
0 1
N -2.1170633017 -0.1685745302 -0.2041994658
C -0.8125554978 -0.1212879640 -0.0786307849
O -0.2539302804 0.9605846518 -0.5123037370
C 0.0103873582 -1.1373331862 0.6751586178
O 0.6833348213 -0.3821131506 1.5415986696
C 1.1424105249 1.1202697136 -0.2640870939
N 1.9105875301 0.7385095795 -1.1656007139
H -2.6335234304 0.6067609223 -0.5870699867
H -2.6111421959 -0.9785934805 0.1246901837
H 0.6074440199 -1.7071085812 -0.0753180645
H -0.7091315744 -1.8709826540 1.1050859409
H 1.3057406686 1.7044852374 0.6303040022
H 2.8697503577 0.9803014421 -0.9383535675
