14
0 1
O 2.4581160060 -0.2009529094 0.4942433179
C 1.3304582653 0.0967985546 -0.0921343751
C 0.1621486025 -0.7757535831 -0.5184852877
C -0.5412440521 -0.4950942787 0.8415317937
C -1.7811785279 -0.0917229090 0.0644417450
N -0.6938040831 0.4559793451 -0.8373798158
C 0.1103100426 0.8506083251 0.4070579752
H 2.3948534726 0.4854822631 -0.7178599365
H 1.6496898894 0.7830226742 -1.2734259801
H 0.1172182692 -1.6787074288 -1.1230157944
H -0.4138710817 -1.0266834371 1.7832545703
H -2.3762714712 -0.8794649019 -0.4012710425
H -2.4259020068 0.6811906017 0.4869993594
H 0.0060616749 1.8279966841 0.8719324707
