19
0 1
C 2.4309861754 0.7589827663 -1.5957813665
C 1.7544123587 -0.0843281988 -0.5327200728
O 0.6975840082 0.6266963604 0.0863469670
C -0.5133358221 -0.6054262564 1.1873456329
C -1.9588389970 -0.3065645326 1.4185481874
O -2.5929959376 -0.6334501088 0.2323957250
C -1.7937023761 0.0167530392 -0.7436451911
H 2.8174959402 1.6826450457 -1.1634472232
H 1.7234981627 1.0192320706 -2.3846884941
H 3.2619197983 0.2116569190 -2.0462281803
H 2.4689871073 -0.3608778607 0.2476096210
H 1.3626904648 -1.0102524903 -0.9776654262
H -0.3313111808 -1.5331610302 0.6593208198
H 0.1759616171 -0.3942901956 1.9980571516
H -2.3459566421 -0.9125879627 2.2539376492
H -2.1021170424 0.7524670354 1.6881895318
H -0.2144146121 0.4330534670 -0.3991143547
H -2.0964174340 1.0702169974 -0.8502415848
H -1.8905325887 -0.5048460649 -1.6971913924
