21
0 1
C -0.5392354156 1.6884750490 0.5245116860
C -0.4624737432 0.2038148949 0.1619827144
C -1.1424088979 -0.0299922654 -1.1893803863
C -1.1505365371 -0.6403673834 1.2359914661
C 1.0013193502 -0.1900562810 0.0279049532
C 2.0807978723 0.0895989297 -0.8989441248
C 1.6760700809 -1.3166546067 -0.6787830318
H -0.0466269516 1.8884073930 1.4811805545
H -0.0562954022 2.3008183778 -0.2389250292
H -1.5785580802 2.0097235606 0.6187637197
H -2.1761718712 0.3169824748 -1.1404064515
H -0.6365737274 0.5149657797 -1.9870931106
H -1.1586227768 -1.0885227697 -1.4526886001
H -0.6866422755 -0.4926060188 2.2167336946
H -2.2034327850 -0.3669816178 1.3310649217
H -1.0938999315 -1.7032680327 0.9922273987
H 1.3135269627 -0.3155024803 1.3725025686
H 1.8303789312 0.6758496078 -1.7729674419
H 1.7350602055 0.3272284959 0.9180105060
H 2.3395094256 -1.9949285544 -0.1393844254
H 0.9857295669 -1.8487675533 -1.3348005819
