11
0 1
C 0.4707401665 0.7066228717 0.2854420084
C 0.6982839671 -0.5135900021 -0.4424593204
O -0.4038863328 -1.2105611188 -0.6684582702
C -1.5145206396 -0.3004082246 -0.1205324836
O -1.0158977896 0.9661086736 -0.1313718504
H 1.5389173607 1.2434261751 0.1423796992
H 0.4184660901 0.7019832805 1.3770523768
H 1.5575705091 -0.7809945316 -1.0422963206
H 2.3827659944 0.3925176661 0.5536563128
H -2.3545782040 -0.4164510326 -0.8133615524
H -1.7304201219 -0.7295737572 0.8763504003
