14
0 1
N -2.3554623516 -0.5399772685 -0.2182019955
C -1.2325167149 0.0404888524 0.1630183000
C -0.1652580319 -0.9230759561 0.1514288385
C 1.0329873769 -0.0781800705 -0.0172533061
N 2.3180382456 -0.5982710484 -0.0473043399
C 0.6550897070 1.2163532674 0.0562067848
N -0.7671516970 1.2968971538 0.2641719048
H -1.4029772355 -1.4804224449 -0.4320451249
H -3.2667782530 -0.1553270483 -0.0024093072
H -0.1460378426 -1.5890470856 1.0133888217
H 3.0368261348 0.0558276374 -0.3097777233
H 2.3867853946 -1.4574606499 -0.5675986971
H 1.2450832840 2.1187274642 0.0594119374
H -1.2960190164 2.0757921970 -0.0891490932
