16
0 1
C 1.5516878828 -0.6085565676 0.9219169133
C 0.3625669650 -0.1213253851 0.1453479366
C 0.4999935265 0.8444234991 -0.9954235392
C -0.2461035179 1.2273026190 0.2119774580
C -2.0203911221 -0.0312224093 0.1625449946
N -1.8234237085 -0.7675299614 -0.9594433755
C -0.8804221329 -0.9909303859 0.1126661457
H 1.2654146784 -0.8816362645 1.9410262687
H 2.3161474276 0.1667551883 0.9889747777
H 1.9986759475 -1.4891166996 0.4523439463
H 1.4948972714 1.2573738769 -1.1212956703
H -0.0088532829 0.6928610000 -1.9487750471
H -0.0443810241 2.0276675756 0.9091107330
H -1.9442244585 1.0761137792 0.3538821828
H -1.5758045771 -0.3941283732 -1.8663184248
H -0.9055938751 -1.9657934915 0.5875457003
