10
0 1
O 2.8568794168 0.0610456032 0.1475224791
C 1.8533982009 -0.5784836536 0.3243271584
N 0.5999459037 -0.0755870784 0.0604157768
C -0.8068672356 1.6297611906 -0.6475005423
N -1.8416557043 1.1233221487 -0.5233724614
C -1.5831895062 -0.7793176918 0.1935308054
N -0.4067466007 -0.8459718428 0.2860098199
H 1.8666261310 -1.6149395823 0.7120948764
H 0.0256161706 2.2727742983 -0.8343489416
H -2.5640047761 -1.1926033918 0.2813220291
