14
0 1
C -1.7475257552 0.0999849570 0.2619488087
C -0.3969270733 0.1728093704 -0.4336738256
C 0.6699910651 1.0186477712 0.1450755788
C 1.8174467294 0.2439597658 0.1799464040
N 1.6378171012 -1.1108025913 -0.2524777966
C 0.3071493502 -1.1989638189 -0.6229550881
O -0.2514718967 -2.1775476875 -1.0601545327
H -2.2649218285 1.0599242412 0.2458797523
H -1.6296804155 -0.2103664402 1.3020454633
H -2.3638220270 -0.6439100159 -0.2423293182
H -0.5353189357 0.5319187810 -1.4663359738
H 0.5887031893 2.0423691621 0.4822785652
H 2.8152184055 0.5846280325 0.4265953141
H 1.3394380912 -0.3536195275 1.0739776485
