11
0 1
O 2.3896155865 -0.2372232476 -1.2664914374
C 2.1575956764 0.6051379430 -0.4801902714
N -0.0048357701 -0.8009722665 0.9971075074
C -0.8570222194 -0.5916719801 -0.0932209516
C -1.3314374861 0.5956776523 -0.5210705710
O 1.9635488466 1.4721964929 0.2931418207
H -0.1339977670 -1.6925957161 1.4689994833
H -1.0580661855 -1.5015082611 -0.6627371946
H 0.0125199693 -0.0312242813 1.6631734738
H -1.1360261242 1.5235341582 0.0179135480
H -1.9096415264 0.6573635062 -1.4395204072
