12
0 1
O -2.5984514987 0.4982306045 -0.3240252214
C -1.5435772045 -0.2559421656 0.1756895453
C -0.1628310095 0.3281006793 -0.0834073111
N 0.1309738729 1.3785717464 -0.6536366634
O 2.5319741247 1.3124438679 -0.0918930130
C 2.2819564745 0.1724948885 0.2571326318
C 1.0385048708 -0.4818791379 0.1336375819
H -2.4832099458 0.6255768927 -1.2684385361
H -1.6528323224 -0.3052049667 1.2610295412
H -1.5325169260 -1.2854986637 -0.2053483631
H 3.0391681056 -0.4224127779 0.8045320395
H 0.9625554585 -1.5536369677 -0.0150952318
