10
0 1
O 1.6694565215 -0.3539732029 0.6209585099
C 0.6214378597 -0.0309312491 -0.0733357536
C 0.2658829316 1.3950302390 -0.2611630664
N -0.8792665080 1.4592750323 0.2807580491
N -1.1259853993 0.1335941636 0.7971522730
C -1.1137818658 -0.8774265499 -0.1390318026
N -0.0256981956 -1.0052374178 -0.8394599951
H 1.7504549795 -1.3197854392 0.6255855204
H 0.7751998755 2.1865642637 -0.7965625848
H -1.9434611990 -1.5801708396 -0.2182301498
