14
0 1
C 1.8559354231 -0.5846401610 0.0485804735
N 0.4701299692 -0.2031152152 0.3402738186
C -0.0696867359 0.9694927155 -0.4389283267
O 0.6177074143 1.3905613524 -1.3296233784
N -1.3645296472 1.2017919223 -0.1577325330
C -2.1262585413 -0.4236002452 -0.8128997104
N -1.5446972586 -1.4390390693 -0.6123491118
H 1.9302929645 -0.8272601559 -1.0078497472
H 2.1190235715 -1.4547479749 0.6479951510
H 2.5313268062 0.2416255358 0.2616161902
H 0.3084634137 -0.0791095164 1.3345886495
H -1.5675181479 0.9888756931 0.8146406881
H -3.0095723459 0.0082896211 -1.2554898248
H -0.3394798858 -1.0010895023 -0.0229473384
