13
0 1
C -0.8486780518 -0.4023669315 1.2953814421
C -0.1967177345 -1.0336768409 0.0943896172
N -0.6013481669 0.0288129756 -1.3662969971
C 0.7001870967 -0.1336572444 -0.6924410824
C 1.2003665268 1.1495732425 -0.0976062460
O 2.3660755219 1.3638428738 0.0863611210
H -1.1064009418 0.6563250924 1.2157159712
H -0.1079005362 -0.5028488264 2.0976689000
H -1.7306618758 -0.9638002174 1.5998948476
H -1.1188142952 -0.9364955464 -0.8988863337
H -0.4992421541 -0.4422107167 -2.2670526420
H 1.4828088269 -0.6255320401 -1.2664837258
H 0.4249077840 1.8943861795 0.1633941278
