16
0 1
O 2.7075466328 0.2986845521 0.1269366815
C 1.5191678879 -0.2573092294 0.4800588270
C 0.3480019678 -0.0312914330 -0.3585161327
C -0.4943930381 -1.2031926638 0.0845464186
C -1.8508696750 0.4783294172 -0.3556869513
C -0.6092948520 1.2351879964 -0.2182682627
H 3.2928587409 0.3507248641 0.8849498503
H 0.6803092674 -1.7295224317 0.3724017996
H 1.3361916154 -0.2987504340 1.5547165243
H 0.5937464815 -0.1486721086 -1.4143841021
H -0.9288970865 -1.1643258327 1.0771822555
H -0.9154603798 -1.8952206981 -0.6328191945
H -2.2131703306 0.2514197402 -1.3512574215
H -2.5980659909 0.4785889168 0.4259968812
H -0.4935802668 1.6958642817 0.7632594246
H -0.3927849741 1.9766220629 -0.9858815978
