10
0 1
O 1.7045697252 -0.6033226747 1.4867733257
C 1.1131003700 -0.3185525063 0.5017423869
C 0.3854416229 0.6532519236 -0.2667886638
C -0.9575656828 -0.0912347900 -0.2242880454
N -0.9014803016 1.3206001675 -0.0282772886
H 0.4934949576 -1.5679571476 -0.7615677692
H 0.7482263939 0.7575738467 -1.2901049220
H -0.4066514898 -1.1508085392 -1.0133281293
H -1.1688988550 -0.6783538246 0.6902045052
H -1.1607147404 1.6455495446 0.9117286004
