14
0 1
C -1.9236839235 0.2326246021 0.1186658237
C -0.7345190671 -0.6939361523 0.0320396123
C 1.3027685113 0.2458016019 0.4768910852
N 2.2435183475 -0.5528031883 -0.0957989688
C 1.0029026108 1.4816865349 -0.1534207704
N 0.7519312570 2.5457071232 -0.5939211668
H -1.6929629062 1.2193992925 -0.3062053712
H -2.2690433837 0.3688285765 1.1524022170
H -2.7733172592 -0.1743812840 -0.4597208709
H -0.8415130613 -1.6466337840 0.5696403344
H -0.3729531809 -0.8659515927 -0.9853006634
H 0.3267306479 -0.2399560473 0.9524082171
H 2.3578095089 -0.6151228712 -1.1073885023
H 2.5494248986 -1.3706208112 0.4196370241
