9
0 1
N -2.1226314576 -1.2130621485 0.2247258819
C -1.2290027591 -0.3878485493 0.2139244778
O 0.7414402766 -0.4577676776 -0.6689196360
C 1.2764983710 0.6291510502 -0.0515235864
O 1.9330066655 0.7463192186 -1.1669231851
C -0.8573431791 0.9198054364 0.4278089208
N 0.1349992223 1.6119844709 0.3185773883
H -1.8653283170 -2.1513747670 -0.0690241824
H 1.8278371773 0.4682329662 0.8826799211
