12
0 1
O 0.6088712480 1.8127805285 1.2517137947
C 0.6578389446 0.8933245019 0.4584235521
C 1.7531700816 -0.0648090418 0.4244627980
C 2.6142438804 -0.8976728368 0.4106505029
C -0.3317998833 0.8393325601 -0.6405203882
C -1.4586285491 -0.6062121969 -0.4476528737
N -1.6862636802 0.8584588945 -0.2669764981
H 3.3938706118 -1.6236558769 0.4043316727
H -0.4122596430 -0.7040955634 -0.9236157871
H -1.4432567984 -1.1552200440 0.4877505462
H -2.1003222127 -1.0164277628 -1.2218649273
H -1.7755089999 1.0355528378 0.7364386079
