10
0 1
N 1.9007778494 -0.4726372620 0.3236511452
C 1.0991198875 0.2437522958 -0.4472813369
C 0.0761367598 -0.7918056647 -0.3482608336
C -1.1934978892 -0.4100732665 0.1053045861
C -1.5421863208 0.8949681278 0.1081844210
O -1.9804539751 1.9424099033 0.1482529587
O 0.9532428891 1.4127003603 -0.7685163919
H 2.3572609943 0.0969017427 1.0374138708
H 0.2946095142 -1.8200185417 -0.5870885471
H -1.9650087091 -1.0961996953 0.4283401277
