10
0 1
C -1.5791975980 0.0715876373 0.0626669080
C -0.0964328292 0.1909451402 0.2081564434
N 0.5391333767 0.9189037477 1.0079184540
C 3.0117541521 -0.6856832701 -0.7140114942
N 1.8189366470 -0.7167221367 -0.7613179268
O 0.4947886567 -0.7239648846 -0.7829008005
H -2.0580815071 0.7359401868 0.7869104472
H -1.8993329568 -0.9638368043 0.2404461572
H -1.8876943233 0.3471659143 -0.9546471980
H 1.5611943819 0.8358964695 0.9290380096
