12
0 1
C -1.8471662930 -0.1199682868 0.3088632060
C -0.9093510855 0.5068180258 -0.6427060547
C 1.4681098452 0.6825244032 -0.0415351994
C 2.0821987050 -0.6138186192 0.2129306877
O 3.0589448081 -1.2416378313 0.5370747390
O 0.8266760614 -0.9327507490 -0.1190434885
H -1.7396580291 0.2186957669 1.3489046525
H -1.9718733439 -1.2161997393 0.2649660923
H -2.8036763869 0.3180040093 -0.0660301791
H -0.9377198400 -0.0852479159 -1.5830344802
H 1.5609476956 1.1659664427 -1.0096391799
H 1.0719208632 1.2798154935 0.7744352045
