14
0 1
C -0.8292116395 1.1775497655 -0.1862806849
C 0.1652713204 0.0101482297 -0.1232705388
C 1.1903988860 0.1799136936 1.0023184969
O 0.7649124968 -0.3044035845 -1.3632576951
C -0.4465108446 -1.3540860327 -0.1311777922
O -1.1322763300 -1.6974826222 -1.1818933619
H -0.2810899823 2.0859826149 -0.4712282554
H -1.6004789159 0.9903375154 -0.9460442869
H -1.3247684568 1.3501368835 0.7805760368
H 1.8819984039 -0.6732647073 1.0148766864
H 0.7051494897 0.2697212988 1.9851173750
H 1.7773587046 1.0879528252 0.8159125321
H -0.5864224657 -0.9716018753 -1.8012001276
H -0.2843396665 -2.1372540048 0.6214886158
