13
0 1
O -1.5823873494 -0.7511047632 1.1915050418
C -1.4017799000 0.0793910907 0.1599213361
C -0.2858867486 1.1304742394 0.3199648249
N 0.8074635499 0.7521396875 -0.5960602301
C 1.3155554916 -0.5967310876 -0.2325351060
C 0.2561403389 -0.4907522248 -1.2272579171
H -0.8845167823 -0.6307350725 1.8858559196
H -1.2114010717 -0.4427695626 -0.9113103864
H 0.0826746126 1.1864131823 1.3611215973
H -0.6699276675 2.1274699543 0.0540312715
H 1.0809406065 -1.0137113610 0.7579844187
H 2.3402450603 -0.7811603440 -0.5602454085
H 0.3642238597 -0.6660267384 -2.3015853618
