13
0 1
C -1.2034790246 -0.4536690289 0.1145516599
C -1.4196324377 1.0734721173 -0.0183517536
C 0.0350504192 0.9107672986 -0.3067352992
N 1.0808857174 1.1166073321 0.4069134608
C 1.6746726591 -0.1681445255 0.4049395240
C 1.1165837561 -0.9777552441 -0.6175752967
N -0.0415950236 -0.3800289540 -0.8965619390
H -2.0104850193 -1.1397069625 -0.1443437521
H 0.5894872730 -0.6959422069 1.0801437007
H -2.0442733470 1.4158360507 -0.8449023579
H -1.6378438958 1.6021858363 0.9049498578
H 2.6350511023 -0.3130374243 0.8819136567
H 1.3036938210 -2.0213472889 -0.8183984616
