14
0 1
N -2.4534717119 -0.5138456344 0.0821384993
C -1.2246135898 0.1116044660 -0.0150874638
C -0.0467366923 -0.7435836485 0.0394530926
C 1.0939825582 -0.0486653952 0.1375297783
N 2.4876647165 -0.3660856717 0.1556920678
C 1.5016293122 1.2547239152 0.2865873648
N -1.0425559695 1.3823667409 -0.0877709028
H -3.2551537410 0.0100437476 -0.2223289208
H -2.4881861445 -1.4927658469 -0.1408211847
H -0.0966977002 -1.8229456351 0.0614946243
H 2.8475319936 -0.8475915469 -0.6530127714
H 2.8885568294 -0.6445692368 1.0342340330
H 1.7068884498 1.8205035111 -0.6216998603
H -1.9111473106 1.9061992348 -0.0524123564
