10
0 1
C 2.3388438264 0.1087667828 0.4580762793
C 1.1614024041 0.0915946986 0.2092018266
C -0.2063701204 0.0452414445 -0.1019641643
C -1.1315647197 1.0793021444 0.2503999007
O -2.3092276995 0.9248802687 0.4855524028
N -1.8812737787 -1.4472132089 -0.1550188211
C -0.7710432630 -1.2220919798 -0.6226461221
H 3.3801011149 0.1371504386 0.6791008484
H -0.6825487002 2.0889811752 0.2085638295
H -0.1459710640 -1.9158277641 -1.1938859798
