13
0 1
O -2.8847834659 -0.3863541742 -0.1703038670
C -1.7069579301 -0.2387514462 -0.0439350105
C -0.7966747185 0.8436288195 0.3809535426
C 0.3295699474 -0.0585877226 0.2650033423
C 1.7182708340 0.3419607334 0.1705084975
O 1.2164772339 0.7460542078 -1.0995265696
C -0.5038560026 -1.2254299178 -0.1912434184
H -0.9435060479 1.6970021106 1.0304313379
H 0.0031845006 1.1715947326 -0.6814087308
H 2.0465014111 1.1513806343 0.8242678925
H 2.4614337903 -0.4493342607 0.0865917566
H -0.2773084765 -1.6504175596 -1.1669360429
H -0.5572940759 -2.0102211569 0.5667772700
