16
0 1
C 2.3864037751 -1.0297023751 -0.3789846672
O 1.8522466738 0.0540620104 0.3758582033
C -0.0129493479 0.7818890377 -0.5900332919
C -1.0512350645 0.6027692485 0.4444305904
C -2.4685287099 0.3622745786 -0.0857013999
O -0.4519923836 -0.5618593724 0.9413321303
H 1.5938120658 -1.7103975353 -0.7309639040
H 2.9313214620 -0.6266419227 -1.2438123447
H 3.0957428775 -1.6052535002 0.2389417349
H -0.0152772022 0.0746796166 -1.4177487276
H 0.6408037452 1.6462541812 -0.6706003312
H -1.0614247837 1.4467580293 1.1637730250
H -3.0985436894 0.0271490520 0.7503543247
H -2.4567725069 -0.4317378869 -0.8449359033
H -2.9075992717 1.2732799293 -0.5186625000
H 1.0097543602 -0.3083090909 0.8875070611
