14
0 1
C -2.0919038100 0.2009915709 -0.1334502187
N -1.0861559905 -0.3352251280 0.7804797929
C 0.2772631654 -0.2056484342 0.5398150774
O 0.4947676961 0.0786075028 -0.7736806235
N 1.2556551953 -0.3595179693 1.3599881491
C 1.8730689637 0.1439750809 -1.1684634367
H -2.0571139824 1.2997099290 -0.2292532775
H -3.0824611736 -0.0905528566 0.2373818619
H -1.9530221729 -0.2353217643 -1.1277084179
H -1.3217088881 -0.2592497336 1.7641334442
H 0.9133175341 -0.5805160396 2.3000056896
H 2.3809694437 -0.8077590294 -0.9694553880
H 1.8497776557 0.3547548806 -2.2429871567
H 2.3964973635 0.9418869908 -0.6270614963
