13
0 1
C 0.6565867680 -1.1869109151 0.0612358555
C -0.7015550147 -1.3052545021 0.3019397814
O -1.5989008631 0.7576929090 0.2656470252
C -0.9908900431 1.4563944521 -0.5845174053
N 0.3518438444 1.4751645050 -0.7739422298
C 1.0693658198 0.8480680496 0.1584488220
H 1.3486759493 -1.4427566884 0.8649335008
H 1.0225080779 -1.3609688330 -0.9506254766
H -1.4134706583 -1.4672124258 -0.5035092068
H -1.0901109752 -1.4222511831 1.3111640479
H -1.5667330822 2.0459853894 -1.3204912422
H 0.7735928307 0.8844402978 1.2152123086
H 2.1357373466 0.7219379446 -0.0441007808
