13
0 1
O -2.1901466376 -2.0867996970 0.1995760155
C -1.1640519133 -1.2321210204 0.4921092952
C 0.8189880263 2.3239904429 -0.3238027419
N 1.0416996852 1.1599803179 -0.7888751275
C 0.9652777254 0.0341272546 0.1489224763
C -0.1084057950 -0.9286858296 -0.2830888624
H -2.0426460857 -2.4467539099 -0.6971145574
H -1.3027769979 -0.8048026985 1.4858585339
H 0.5808616727 2.5386427344 0.7356115799
H 0.8574944204 3.1836001793 -1.0037783100
H 0.7847957703 0.3551665986 1.1943287097
H 1.9495414745 -0.4636002101 0.1219132866
H -0.0094853454 -1.3615101621 -1.2821912979
