12
0 1
C -2.9413988626 0.6006367804 0.4095685755
C -1.6353883837 0.5187473878 0.1850772047
C -0.3824428560 0.4501276390 -0.0444792542
C 0.9276720957 0.3430645624 -0.2466405598
C 1.8642414584 -0.4222432417 0.6617644845
O 2.5691106864 -1.4400467576 -0.0528767129
H -3.6061724313 1.1286430140 -0.2779662363
H 1.8905514932 -2.0203794509 -0.4475921581
H -3.3990111601 0.1420157256 1.2892651831
H 1.3822423540 0.7898809183 -1.1364498645
H 1.3041332929 -0.8220717608 1.5242395097
H 2.6461663131 0.2493741834 1.0443578281
