15
0 1
C -2.8687824507 -0.5273824980 -0.0054618845
N -1.1666893283 0.3092825433 -0.5547647102
C -0.0793173506 -0.5224119650 -0.6281114715
C 0.9580988034 0.1120775482 -0.0253884311
C 2.3547072222 -0.3732556919 0.1766042229
C 0.3962188407 1.3618064220 0.3846518775
N -0.8646405305 1.4752371243 0.0639054438
H -2.0503887442 0.2108253632 -1.1289887456
H -3.0412482400 0.2088577486 0.7888438102
H -2.3948488626 -1.3948881668 0.4720307245
H -0.1540520228 -1.4922009265 -1.0947681960
H 3.0758645071 0.2825451194 -0.3143889688
H 2.4811894029 -1.3757158795 -0.2321516395
H 2.6094437635 -0.4097810574 1.2374643314
H 0.8910359901 2.1695643162 0.9055146365
