10
0 1
O -1.3461312576 -0.6303986506 -0.8793673992
C -2.1342659634 0.4071640452 -0.9529981548
C -0.1477332526 -0.4637632722 -0.2245436731
N 0.6375143358 -1.4919140495 -0.1686751940
O 1.7300339114 -1.0553666646 0.5263097762
C 1.5574988917 0.2267977160 0.8628686494
C 0.3706311921 0.6854005922 0.4157593469
H -3.0005092751 -0.0041659910 -1.5117641699
H 2.3627264925 0.6805073720 1.4176638760
H -0.0799900748 1.6560599023 0.5082209426
