11
0 1
C -1.3112952210 0.3994146878 -0.4318651683
C -0.4222225961 0.1367589123 0.7389793264
O -0.5773601649 -0.1758070849 1.8710261859
C 1.4342286322 -0.9277343877 -0.2187675321
C 1.4195949357 0.3987853026 0.1303328654
N 1.0833757823 1.5169851971 0.4575983510
H -1.9680998460 -0.4705656030 -0.5653839483
H -0.7507824739 0.5907098109 -1.3469000223
H -1.9314305954 1.2747602145 -0.1921288492
H 1.3998942009 -1.2062007591 -1.2702930935
H 1.7287283461 -1.6719982903 0.5171658849
