11
0 1
N 2.3953545940 -0.2249644612 0.4963552794
C 2.0337080599 0.4648305705 -0.4266169670
C 0.7148997970 -0.7694876744 -0.1135629503
C -0.4068626146 -0.0019457493 0.5251693040
C -1.2880946237 0.8464869503 -0.2868855537
O -1.7077181120 -0.4696311298 0.1276464093
H 0.9194649123 -1.7141158855 0.3981945804
H 0.5546345646 -0.9710153129 -1.1760492747
H -0.2840590116 0.2107212404 1.5906296596
H -1.8143425320 1.6786273684 0.1880102059
H -1.0780580339 0.9612000836 -1.3540046929
