10
0 1
O -1.7995593964 -0.4538564287 1.2432139877
C -1.0701677469 0.0033125988 0.4140762308
C 0.0235988370 -0.7747264669 -0.2866326080
C 2.2130963402 0.3335373898 -0.7815119194
C 1.3836719835 -0.2175845167 0.0455283138
C -1.2019077199 1.4196405252 0.0015667825
N -1.3144573149 2.5092032746 -0.3381473737
H -0.1457294454 -0.7168685796 -1.3645137400
H -0.0568473609 -1.8139748790 0.0304292313
H 1.7702978239 -0.2562549175 1.0676620947
