16
0 1
C -2.3790196860 -0.3480360182 0.3714064989
C -1.0082881268 0.1799006060 0.1534610069
C -0.5276505193 1.4161289648 -0.0228397721
C 0.8981086799 1.3761484322 -0.3338456127
C 1.3108610232 0.0924761022 -0.3511358061
C 2.4333679264 -0.7453799524 -0.0179228474
N 0.0990833525 -0.7350915848 -0.0592459978
H -2.4282043903 -0.9902268853 1.2542088252
H -3.0755628239 0.4774958711 0.5121074533
H -2.7288930525 -0.9351118962 -0.4841092353
H -1.1222014576 2.3154376601 0.0610548760
H 1.5444445161 2.2354634846 -0.4141780833
H 3.3507898999 -0.2344576007 0.2536882356
H 0.9597893149 -1.1548287991 0.6713887000
H 2.6045012782 -1.5834053347 -0.6955998092
H -0.0851639348 -1.4431450494 -0.7678354322
