12
0 1
O 0.9010466394 2.2013402031 0.6199041097
C 0.3711595712 1.1497293644 0.5000789342
N 0.7718247715 0.1805120045 -0.5141043083
C 0.4021813632 -1.2524112450 -0.3363060123
C -0.6512445620 -0.3545981228 -0.7741922360
O -0.8627528160 -0.2580141320 1.9852278125
C -0.9334434492 0.5459912852 1.0549543703
H 1.4501245297 0.4412666748 -1.2185882789
H 0.3938793836 -1.5697660295 0.7052302612
H 0.9441815741 -1.8841285624 -1.0332634802
H -0.9244772767 -0.3253598259 -1.8254254236
H -1.8141147287 1.1865773856 0.8870362514
