14
0 1
N -2.4570660432 -0.3867041140 -0.1339653622
C -1.1825562252 -0.2985250453 0.2139868424
C -0.0197454386 -0.9298604977 0.5397776413
C 1.0479033911 -0.0529036300 0.0836073521
N 2.3754004135 -0.3989716562 0.1969868281
C 0.5525563321 1.1012907934 -0.4381755513
N -0.8835531454 1.0728748990 -0.2128867653
H -1.9998067619 0.7719621764 -0.7576224556
H -2.9681285760 -1.2468353407 -0.0257087644
H 0.0956884579 -1.9676708578 0.8082589985
H 3.0128895006 0.0910777886 -0.4059722224
H 2.5633574525 -1.3844837108 0.2536933903
H 1.0471322954 2.0083142493 -0.7386880752
H -1.1379936529 1.6937209458 0.5543351438
