18
0 1
C 2.3690183688 0.8119657172 0.5132449840
O 1.2413378091 1.0608989968 -0.2975697933
C 0.8203282072 -0.0243328303 -1.0164845809
C -0.4052309127 -1.1303365789 -0.0330867461
N -1.7698060260 -0.8912419428 -0.1786340117
C -2.2595311641 0.1403189933 0.6922783299
C -0.4984610387 -0.0379270705 -1.4872494820
H 2.6078132005 1.7434016121 1.0223344288
H 3.2286244770 0.5054119382 -0.0942977857
H 2.1676750507 0.0370776041 1.2601351134
H 1.5760926733 -0.7037820283 -1.3949435031
H -0.0856699657 -2.1080436779 -0.3929862164
H 0.0517403947 -0.8637353416 0.9338775573
H -2.0936771001 1.1718907334 0.3219411471
H -1.7999367917 0.1021071184 1.6961527846
H -3.3389966595 0.0259349048 0.8103265301
H -1.0791785174 0.8747427493 -1.4025145678
H -0.7462140053 -0.6840908975 -2.3157921884
