15
0 1
N 2.1468820649 0.7090269633 0.1712688642
C 0.9590562783 1.0209809052 -0.2997418550
O 0.2374360934 1.9889091641 -0.3858693684
N 0.5764740817 -0.3842943526 -0.7757156923
C -0.7179547757 -0.9456204328 -0.3421572607
C -1.1052656573 -0.5460921353 1.0777769049
O -1.8044649374 0.6682476358 1.1493112425
H 1.7128890000 -0.4891213646 -0.1990275129
H 2.7347529687 1.4283729092 0.5658109189
H 0.6640274982 -0.4284690919 -1.7857281443
H -0.6358198153 -2.0316979758 -0.4201744655
H -1.5081675023 -0.6124999346 -1.0192662875
H -0.2104474706 -0.5420534662 1.7168425206
H -1.7785332415 -1.3089395801 1.4721465070
H -1.2737965854 1.3593707563 0.7296326286
