14
0 1
C -1.9361249750 0.7510927360 0.1940325139
C -1.2526422161 -0.5556158375 -0.2047372346
C 0.1867110812 -0.3782651341 -0.4748940654
C 1.2018382724 -0.2664649852 -1.1586058023
N 2.7526658212 0.1352207144 0.2575130293
N 2.0328698399 -0.0368645828 1.2670256527
N 0.9151343994 -0.1671191159 1.5046719243
H -3.0004545652 0.5843440885 0.3670326845
H -1.4981637637 1.1529427564 1.1080280827
H -1.8287170289 1.5003350191 -0.5916205013
H -1.3781336943 -1.2930485704 0.5906590375
H -1.7256954800 -0.9654593432 -1.1005989617
H 1.8363227250 -0.2058739218 -2.0121732409
H 3.6922145841 -0.2342348232 0.3669998813
