14
0 1
O 1.8342560503 1.2653745719 0.6657535775
C 2.3000162279 0.3704929626 -0.0180616088
C -0.5643696589 -1.6592512802 0.2353163955
C -0.9403903923 -0.6286721676 -0.5387636756
C -1.4684980967 0.6889176522 -0.0264818928
O -0.7218711930 1.7977107607 -0.5175354123
H 0.1572923701 1.7594934357 -0.0789365959
H 1.8315235077 0.0429336387 -0.9682696924
H 3.2275286700 -0.1636227051 0.2847105205
H -0.1890003966 -2.5934271559 -0.1854776144
H -0.6394938762 -1.6069485103 1.3241459644
H -0.8492617658 -0.7000844031 -1.6269558417
H -1.5129018209 0.6643914451 1.0784722695
H -2.4959526255 0.8381397552 -0.3926603935
