16
0 1
C -1.1270667498 1.6299031725 0.1212197965
C -0.5869567771 0.2968056272 0.4790214369
C 0.8520158046 0.0665702938 -1.2294997217
C 1.6514983923 -0.8162664672 -0.6249953848
C 1.9645637322 -1.5025689908 0.3924097269
C -0.2633381091 -0.4235340556 1.5462946523
N -1.2201165648 -1.0236756587 0.5519887731
H -0.4151703440 2.4141387358 0.3794648569
H -2.0465395382 1.8040000639 0.6896124497
H -1.3672200950 1.7097783961 -0.9394641401
H 1.1863906922 1.0902576855 -1.3627959784
H 0.0860358906 -0.2896617376 -1.9101334385
H 2.7130421863 -2.2332594309 0.6423342318
H 1.1174839925 -1.1866943721 1.1949035011
H -0.3131515301 -0.2971434261 2.6150691593
H -2.1868809826 -0.8972598356 0.8719700792
