13
0 1
C 0.5990739605 -0.9840839365 0.4249808541
C -0.8012197845 -1.0302484331 -0.1356838455
O -1.5774248298 0.1993924664 -0.1158940584
C -1.0029718912 1.4304417096 -0.2308531954
N 0.2381961828 1.7413928706 -0.2442968995
C 1.3541360020 1.0266486237 -0.3564914653
H 0.6790792018 -0.6492723721 1.4589228416
H 1.1350097867 -1.9250924846 0.2527751232
H -0.7798186729 -1.3671299070 -1.1834016417
H -1.4264506257 -1.7386658616 0.4268217957
H -1.7739974024 2.1991668075 -0.2456456208
H 2.0649222511 1.2113962565 0.4659144215
H 1.2700648215 -0.1984307395 -0.5098663096
