18
0 1
C 3.0144400881 0.5198240582 0.1974373954
N 1.6969543518 0.6729289418 -0.4024678433
C 0.6309561998 -0.0407027545 -0.0838920054
O 0.8096707675 -0.9178288485 0.8236821270
C -1.4987602177 -0.4024250924 -0.4771772302
C -1.7040466817 -1.4418300017 0.4084521746
C -2.0538778849 0.9730335969 -0.2339365988
H 2.9776642883 0.7348055344 1.2661277679
H 3.7076620468 1.2090732747 -0.2817206605
H 3.3761718787 -0.5003244006 0.0656920139
H 1.5769942750 1.3716647323 -1.1119710041
H -1.3190322071 -0.6423877577 -1.5193647980
H -1.7127396985 -2.4641722390 0.0475789086
H -2.2264228651 -1.2506513265 1.3410114464
H -0.1856619674 -1.3483506757 0.8852530344
H -3.1055010133 0.9984519395 -0.5359097354
H -2.0092816432 1.2320076471 0.8252493508
H -1.5207437170 1.7385893718 -0.7981373435
