10
0 1
O -1.9716524027 -0.3363006012 -1.0530088679
C -1.0657851371 0.2279466570 -0.3707586872
C -0.1731564524 -0.7393531810 0.1597265536
C 1.2118083042 -0.5054052224 0.3955174609
C 2.3836738944 -0.3148710592 0.5612382937
C -1.0276907662 1.6610164554 -0.2345657024
N -0.9771752130 2.8000953459 -0.1079952131
H -1.1327166284 -1.2906152986 -0.8285678452
H -0.6906112163 -1.3769651929 0.8794842146
H 3.4233756175 -0.1435739032 0.7113557930
