9
0 1
N -1.0781356253 -0.8988551906 0.3229095429
C -0.8310021098 0.5391849043 0.1549747957
C 0.5509597876 0.7202461701 -0.0397922907
C 1.0681552335 -0.5775496718 -0.0109370518
N 0.0971630115 -1.5145201513 0.1435569385
H -1.3967744269 -0.2186463279 -0.7305329359
H -1.6039529282 1.2470756947 0.4462568568
H 1.0816905233 1.6547723690 -0.1785156833
H 2.1020125342 -0.8931647965 -0.1229791722
