13
0 1
C -1.5868373188 0.0387954065 0.3011103095
C -0.7942348610 0.1823021095 -0.8627899871
N -0.4234089013 -0.8789716547 -1.5397801928
O 1.0524910351 -0.7075916891 -1.5458651881
C 1.2235548722 0.1776776813 -0.5157997752
N 1.2070104587 -0.4766115455 0.7779634775
C 0.2877565551 1.1673300123 -0.5484714080
H -2.0514561431 -0.9320237387 0.4464697687
H -0.0345340498 -0.4505387813 0.9706726890
H -2.1051900396 0.8942941085 0.7227743689
H 1.6095999197 0.0810148659 1.5255165246
H 1.6195202085 -1.4078573028 0.7600032783
H 0.1571742643 1.9148405282 0.2187451348
