19
0 1
C 1.6655936518 1.0906627052 1.1351664594
C 1.7164412434 -0.2751325128 1.0317780782
C -0.2674917711 -1.1609531715 0.1447918410
O -0.8143946210 -1.6782234692 1.2764800910
C -0.9145995576 -0.1447256834 -0.5357295821
C -0.7454722714 0.0077858914 -2.0226691397
O -2.2004219714 0.1129397685 -0.0321435053
H 2.3061483352 1.7112568424 0.5179688972
H 0.4095907282 1.5268631048 0.3539737977
H 1.3265066371 1.5513819918 2.0568005713
H 2.3511407547 -0.7340368113 0.2837082594
H 1.4139781222 -0.9042859476 1.8566534947
H 0.4078859730 -1.8313119974 -0.3631311182
H -1.6351982969 -1.1941404466 1.4324686864
H -0.2282875795 1.0968868489 -0.0856546284
H -1.4175086917 -0.6661840198 -2.5599234303
H -0.9572522937 1.0296727055 -2.3454218877
H 0.2815035029 -0.2260566352 -2.3079845437
H -2.3800948943 1.0541278357 -0.0707493411
