9
0 1
N -1.8490221091 0.3511982844 0.5061049084
C -0.9200334010 -0.6148701727 0.6895023802
O -1.1691095270 -1.7799087064 0.8850649297
C 0.4633177898 -0.1344320449 0.6342762460
C 1.6135367176 0.2173023405 0.5963548075
C 2.9778165098 0.8256963331 0.5132951743
N 3.2398064113 -0.3179297212 0.7452350161
H -1.5914985188 1.3061359910 0.3404728152
H -2.8188848723 0.0893316964 0.5275257227
