14
0 1
O 2.0220758805 0.9389183840 0.4507790252
C 1.6333363871 -0.2539435263 -0.2078827128
C 0.2976512267 -0.8233665746 0.3201967144
C -0.8439064654 0.0797184773 0.0424894196
C -2.2900020250 0.4651349836 0.0587427813
O -0.9028053006 1.3487581519 0.2157473219
H 1.3492307686 1.6165982100 0.2503313879
H 1.5461438851 -0.1255786134 -1.3014392052
H 2.4283194581 -0.9844055329 -0.0127724731
H 0.0849685741 -1.8131737739 -0.1040672845
H 0.3532145927 -0.9275512322 1.4188802256
H -1.0794797142 -0.1410076845 -1.7164620823
H -2.7102589133 0.5020784950 1.0828294892
H -1.9258433545 0.1108502360 -1.3677406071
