13
0 1
C 0.5187036660 -0.6908867058 0.4987988900
C -0.9190975217 -0.8809808597 -0.0599066689
O -1.7822993436 0.1323938218 0.3811077949
C -0.7864077826 1.7742662240 -0.3034891256
N 0.3987478108 1.6251483503 -0.4600331053
C 1.2680457936 0.4702995898 -0.1598899766
H 0.4274735655 -0.5165871490 1.5792548832
H 1.1151030823 -1.6040487922 0.3515069493
H -0.8686931885 -0.9596752966 -1.1680743356
H -1.3073988959 -1.8487625540 0.3061897239
H -1.8636683147 1.4609691106 -0.3116465480
H 2.0893549086 0.8472010541 0.4629343023
H 1.7051182201 0.1790852065 -1.1255067836
