15
0 1
C 2.0009987743 -0.4126258741 0.5698895164
C 0.9657797506 0.6588662648 0.4350104975
O 0.5992401387 1.0497023773 -0.9045483124
C -0.3459305763 0.4089671486 -0.1517423519
C -2.3651558901 0.7706899130 0.0408641661
O -2.2972917535 -0.6221192422 0.0642547669
C -1.0654911305 -0.8657712117 -0.5694661109
H 1.9637287897 -0.8431459312 1.5721905211
H 1.8397838639 -1.2069115830 -0.1590850347
H 2.9983370122 0.0010878315 0.4133003896
H 1.0525543818 1.5047874619 1.1127654618
H -1.2150318953 1.1248830195 0.4919394302
H -2.3221180344 1.1068491765 -1.0168258599
H -1.1603098690 -0.8795173681 -1.6637714109
H -0.6227455622 -1.8041119828 -0.2220316689
