15
0 1
O 2.5072636871 -0.2659803248 1.1600911990
C 1.5421353421 0.2954234109 -0.3184151151
C 0.2919374957 0.0096854984 0.2641263602
O -0.5801249239 1.0743240433 0.6921238738
C -1.7016200770 0.2704125836 0.3445878671
C -1.7419846954 -0.0213630743 -1.1140969394
C -0.8540400924 -0.8418536401 -0.2016204811
H 2.8404828844 0.4691618866 1.6910147379
H 1.8956699604 1.3178033717 -0.3955470223
H 1.9864002238 -0.4146765163 -1.0032377403
H 1.2922581395 -0.3825764830 1.2413982571
H -2.5522784220 0.2703879422 1.0122120271
H -1.3089678263 0.6847057916 -1.8137115266
H -2.6347018576 -0.5300416866 -1.4579503067
H -0.9518348386 -1.9109498031 -0.0857301905
