16
0 1
C -2.6666095505 -0.0440838305 -0.0968639480
C -1.7602987083 0.8787052254 -0.5750793418
C -0.7083708704 1.5063927426 0.0704888930
C 0.5476095363 1.0276207022 0.3132170071
C 0.9311212403 -0.3272708771 0.0144374445
C 2.4018594213 -0.6452079308 0.1004655293
N 0.0509418399 -1.2066949890 -0.3319990088
H -1.6264229125 -0.6618190935 -0.3442273777
H -2.8431125819 -0.1928501144 0.9718504429
H -3.4427558834 -0.4210887456 -0.7576432306
H -0.9175198314 2.5558470257 0.2778782059
H 1.3062000314 1.7098138035 0.6715842991
H 2.5885359910 -1.7131368121 -0.0129150200
H 2.9468191713 -0.1090586911 -0.6795496256
H 2.8045469223 -0.3179733647 1.0610370902
H 0.4754921848 -2.0993210508 -0.5590463597
