15
0 1
O 0.8699831312 -2.5342042239 0.5043473652
C 0.5298410170 -1.4188909698 0.2065024765
C -0.8873043724 -1.0263351965 -0.1127791947
C -1.1509358938 0.4399212911 0.2176372950
C -0.1290164633 1.3517920251 -0.4625107091
C 1.3237949690 1.0056979800 -0.3032491238
C 1.5654326917 -0.3118576032 0.0882649812
H -1.0139964702 -1.1920265007 -1.1902585989
H -1.5645414591 -1.7119153182 0.3973643560
H -2.1670749200 0.7148185870 -0.0730349654
H -1.0944485431 0.5830079156 1.3026540139
H -0.2661531359 1.3226716908 -1.5538737218
H -0.2952117577 2.3964212494 -0.1928841612
H 1.6521857661 0.6071976237 0.9403073002
H 2.5896954403 -0.6751925504 0.1835586868
