16
0 1
C -1.5408032945 -0.7857361093 0.1686238443
C -0.4554230261 0.2385685684 -0.1782719200
C 0.6186486315 -0.3409576776 -1.0821783147
O 1.7113864506 0.3926404455 -1.3906509889
C 0.1852777098 0.8766693550 1.0715267362
O 1.0629324212 1.9362800437 0.7691776197
H -1.9854724141 -1.2252658073 -0.7352900021
H -1.1288695917 -1.6031464469 0.7786263559
H -2.3456670699 -0.3106765083 0.7443212611
H -0.8834107047 1.0554759553 -0.7874530226
H 0.2350538275 -1.0334125040 -1.8610536562
H 1.1081087258 -1.3905751194 -0.1857321906
H 1.7632866243 -0.7625250823 -0.6178444663
H -0.6063973213 1.2713927552 1.7246240948
H 0.6828424878 0.0504808717 1.6301483807
H 1.5743075439 1.6208792602 -0.0180517314
