13
0 1
C -2.3687065003 -0.0112478212 -0.0075483974
C -0.8854564608 0.0129133507 -0.1572547508
N -0.3491907390 -0.1367149795 -1.3413141460
O 0.9770640671 -0.1139322729 -1.2406466572
C 1.2810811620 0.1756624467 0.1382230833
N 2.5630622954 -0.1907484267 0.5559873211
C 0.0760428190 0.1548167310 0.9180655003
H -2.8502690454 -0.1952621426 -0.9670308140
H -2.6601264886 -0.7915794328 0.6964664429
H -2.7237482314 0.9380863320 0.3955576093
H 3.2684710520 -0.0384836485 -0.1480475096
H 2.5983098580 -1.1345059655 0.9070380082
H 1.1061982121 1.3057518294 0.2198533100
