11
0 1
C -1.0908194766 1.5896528289 0.0286900966
N 0.0162570899 0.5472467829 0.1797261663
C -0.1259216859 -0.8538621280 -0.1659393799
O -1.2190849734 -1.3329579723 -0.4526366725
C 1.1748251214 -1.5705133940 -0.0321104728
O 2.2245120289 -1.0087749947 0.2894029447
H -0.3588356231 0.8078419172 1.1795957552
H -0.7120230352 2.4808389490 -0.4693739365
H -1.9703116330 1.0954094060 -0.3794747311
H 0.9941703804 0.8597358228 0.1227884019
H 1.1211328066 -2.6450432178 -0.3042061718
