11
0 1
O 1.0000333154 -0.7627122576 1.3801654194
C 1.0004149313 -0.6409933233 0.1078219642
C 1.0707436912 0.7154964938 -0.4255503908
C -0.1966640111 1.1332775765 -0.2056436062
N -1.1724166579 0.2337775949 0.2607054719
C -1.0148998775 -0.9794489172 -0.3876569182
N 0.1688749978 -1.4896421564 -0.5343782964
H 1.9324828593 1.3241550359 -0.6386403174
H -0.4834386418 2.1755723457 -0.2696136233
H -0.1625545967 -0.3095755050 1.3103989123
H -1.8907190101 -1.5316088872 -0.7124346155
