10
0 1
N 1.8442942663 -0.1737965090 -0.3258233873
C 0.5119398367 -0.0404661972 -0.0350153402
N -0.2735470293 -1.1184677189 0.2491732982
N -1.6453244737 -0.5023323251 0.3935026242
C -1.4062017294 0.8062097945 0.1644381425
N -0.1287341660 1.1531448781 -0.0254904479
H 2.3867966427 0.6705969307 -0.1784559107
H 2.2748922870 -1.0236794341 0.0226020514
H -1.2911251829 -1.3210076092 -0.4595366070
H -2.2269714514 1.5202971903 0.1827135768
