14
0 1
C -1.4351852533 1.0703520081 -0.2731692042
C -1.0107019325 -0.3702170182 0.0250269605
C 0.4422968244 -0.4778547778 0.5182303480
O 0.6555043449 -1.8481698924 0.8852646664
C 1.4083553310 -0.0324742871 -0.4999251983
C 2.2256538383 0.3116204428 -1.3344240997
H -1.3408235243 1.7054245143 0.6201189245
H -2.4825996925 1.1050897547 -0.6017289491
H -0.8136286737 1.5071387369 -1.0665268588
H -1.1128145546 -1.0005673686 -0.8691319116
H -1.6443358263 -0.8073799385 0.8101293393
H 0.5553207459 0.1804320375 1.4029112497
H 1.6124813376 -1.9566599780 1.0406417266
H 2.9404770353 0.6132657662 -2.0722158524
