12
0 1
C -1.5108885172 -0.3883460408 0.1809250554
C -0.1185344492 0.2107919041 0.1455850319
C 0.9980622776 -0.6982857914 -0.2372824920
N 2.1614183975 -0.2345942482 -0.5138059012
N 0.2309175741 1.2636167723 1.2666802535
C 0.1147598439 1.6479200051 0.0705825762
H -2.2439692448 0.3564632945 0.5126694909
H -1.8115269062 -0.7463760639 -0.8155126171
H -1.5541358673 -1.2421363977 0.8739698826
H 0.7291426272 -1.7701728057 -0.2623827567
H 2.8077844948 -1.0031940291 -0.7385477377
H 0.2028227694 2.5585534008 -0.5214207858
