14
0 1
C 1.7383620223 1.0443259736 -0.4949901475
N 1.5720227567 -0.3665767099 -0.6429393910
C 0.7266080139 -1.0824644179 -0.1299400328
N 0.2479308251 -2.1876970135 0.2536367604
C -1.2147365776 -0.0460654662 0.2538057913
O -1.8886712179 -1.0218210209 0.7577855364
N -1.9242693659 1.0618731785 0.1088300821
H 2.5133193220 1.2686489203 0.2420309409
H 0.8053287408 1.5088863350 -0.1532632320
H 2.0405289094 1.4866186892 -1.4450377118
H -1.2020186159 -1.7878629864 0.7236316575
H 0.9340184719 -2.8274725547 0.6274663582
H -1.5033026971 1.8770636854 -0.2934806119
H -2.9042505877 1.0994743876 0.3571560001
