11
0 1
C 0.6041068810 0.8417151095 0.4685561646
C 1.1433844805 -0.5193804944 0.0869808241
O -0.1204316201 -1.2244946356 -0.2830740987
C -1.0739515973 -0.6080521078 0.4193704501
O -0.7186787175 0.5454876957 0.8841844037
H -0.8413865911 1.2688599744 -1.7293930446
H 1.1070168676 1.4216420561 1.2417889676
H 1.7874977171 -0.5354490394 -0.7993060407
H 1.6161192498 -1.1264106701 0.8947797711
H -1.4708487512 1.1601639784 -2.1228296112
H -2.1176249189 -0.8674398668 0.2786432140
