14
0 1
O 0.9452678842 -0.8800018211 -0.8605376951
C 1.9829217237 0.6090142762 0.1979149682
C 0.9797587152 1.3288492105 0.7668397195
C -0.2554728403 1.1559828650 0.8337893191
C -1.4620632240 0.7213812274 0.3478414018
C -1.1368777341 -0.8444006611 0.4703196853
N -2.3530925787 -0.2635052674 0.9467580234
H 1.4103603246 -1.7186353077 -0.9313122669
H 2.6038443107 -0.0408373094 0.8040267574
H 2.4075534109 0.9489313833 -0.7369567102
H -1.7937804923 1.1020900282 -0.6090805256
H -0.4692201036 -1.0771352555 1.3082064523
H -0.2172903385 -1.0823817969 -0.5321073285
H -2.3640650579 -0.2001055715 1.9603891994
