10
0 1
N 2.0284064689 -0.1018388039 -0.1493101027
C 0.7235367383 -0.3537991045 -0.0836400418
N -0.2097329801 -1.3338906557 -0.1178262198
N -1.3793236066 -0.5967064487 0.0529781281
C -1.1648394454 0.7285530570 0.1759587174
N 0.1472295059 0.9129558933 0.0905354942
H 1.3691845776 1.2180301855 0.0180892369
H 2.6858602719 -0.8507600407 -0.3456034248
H -2.2730581951 -1.0763171047 0.0628172686
H -1.9384953354 1.4740330225 0.3144009438
