19
0 1
C 2.2144824220 0.4190802002 1.3473703784
C 0.7107391025 0.4219496630 1.1136149599
C 0.3357413498 -0.1813980898 -0.2310909664
O 0.6814884320 -1.5487631185 -0.3173223083
C -1.1487055199 -0.0587868798 -0.5702300102
C -1.5729587376 -0.3499931868 -1.8979799397
O -1.9567455688 -0.2469431018 0.4882140747
H 2.6235907116 -0.5905715427 1.2910303564
H 2.7285421995 1.0276467082 0.5997503047
H 2.4550140150 0.8273009096 2.3299404963
H 0.1988590072 -0.1369909648 1.9039032558
H 0.3171340290 1.4398873104 1.1537393926
H 0.8864652975 0.3136130845 -1.0339368054
H 0.2578781592 -2.0151562635 0.4083350007
H -1.1379305743 1.5889417568 -0.5308317580
H -2.6350313126 -0.4460560902 -2.0878698570
H -1.3383130544 1.0250611493 -1.4361993502
H -0.8729338059 -0.8391848126 -2.5578831624
H -2.8120331519 -0.5484207315 0.1658429382
