8
0 1
O -0.4400065437 0.2390416691 -1.2120262389
C -1.0195056778 -0.2119454417 -0.1519691121
N -0.2452193878 -0.2060927112 0.8937916476
C 1.1018249029 0.3861488769 -0.2909033560
O 1.5734203807 1.4672654038 -0.1670542531
H -2.0619008503 -0.5606927664 -0.1980823443
H -0.5223553499 -0.5953990604 1.7948807896
H 1.5388075259 -0.5802709703 -0.5622471328
