12
0 1
N 2.0674452670 0.1476976822 -0.0071980547
C 1.1791999693 0.9434017239 0.4385775629
C -0.0665667128 1.2939681734 -0.0743198127
N -1.1823158479 0.6371017207 0.0308692167
C -1.3440497146 -0.8626140060 0.1989436978
O -2.4783149351 -1.1695338813 0.5324310783
N -0.2372454752 -1.4723765447 -0.1072616293
H 1.8115188928 -0.5315099331 -0.7239814187
H 2.9101822972 -0.0191401035 0.5225049535
H -0.1110339008 2.3202750733 -0.4367088309
H -2.0603043282 1.1230639138 -0.0762169883
H -0.3958535117 -2.4662078188 0.0212632254
