13
0 1
N -1.7619754070 0.8749210769 -0.0439472141
C -0.3943716449 0.5587031265 -0.0488476622
C 0.0224802959 -0.8148178177 0.1773930678
O -0.6850426057 -1.9543633412 0.3132541118
N 1.3522010842 -0.8417388147 -0.0444113314
C 1.7648640163 0.4712061476 -0.3074715711
C 0.7494692503 1.3885362693 -0.3255686332
H -2.2064587798 0.5745105170 -0.9016713422
H -1.8684169118 1.8781756384 0.0327031042
H -1.6186041916 -1.7262076986 0.3715060414
H 1.9291098825 -1.6457020512 0.1343774503
H 2.8274423450 0.6245298742 -0.4474642388
H -0.1160433335 0.0479790733 1.1633162174
