8
0 1
O -2.5151535930 -0.6586881986 0.5406856122
C -1.4587806222 -0.1659424127 0.2719437514
C -0.8533262960 0.8839588420 -0.4862443899
C 0.3890895611 1.0787917942 -0.8033061098
C 1.3868145562 0.2016595018 -0.2833284744
O 1.0604332105 -1.0033088593 0.0049867073
H -0.1063749442 -0.8977811126 0.2774181087
H 2.4106701276 0.5130624451 -0.0583702055
