16
0 1
C -1.6729061624 -0.9323708284 0.1191915217
C -0.5530967747 0.1094925781 -0.0911351448
C 0.6005643357 -0.5652684135 -0.8472653626
O 1.5984246756 0.4625977765 -1.1659397796
C -0.2785950508 0.6857733433 1.3037157151
O 1.1535439612 1.6898072134 1.0498686521
H -2.0344283105 -1.3261780448 -0.8417938616
H -1.3091682498 -1.7785881077 0.7212986942
H -2.5138020609 -0.4737284509 0.6533217715
H -0.9542429437 0.8953685647 -0.7591858317
H 0.2722614799 -1.0232201367 -1.7973893909
H 1.0516850664 -1.3444899052 -0.2105349933
H 2.4430955828 0.0187289066 -1.3645106368
H 0.6940163291 2.5362885343 0.9016479685
H 0.2765643750 -0.1062905459 1.8543751515
H 1.5102107471 1.3730125162 0.1544645269
