19
0 1
C 2.6872440985 0.4493777951 0.7988679200
C 1.5333774402 0.1303506832 -0.1240223119
O 0.5650487613 -0.6281189152 0.5755257294
C -0.4280020489 -1.3271432067 -0.3963595435
C -1.1534935614 -0.0565371523 1.0144579302
C -1.7104714267 -0.4770808688 -0.2402819197
C -1.9741761674 0.5617128429 -1.3111221356
H 3.1315318401 -0.4687920590 1.1851863955
H 2.3563855374 1.0529088352 1.6464760589
H 3.4564622052 1.0085365342 0.2631104606
H 1.8289233319 -0.4785832329 -0.9865559429
H 1.0852128266 1.0506801918 -0.5204659562
H -0.5213762772 -2.3143760790 0.0649838436
H -0.8392310983 0.9675003702 1.1977578363
H -1.3167539285 -0.6604206007 1.8961631319
H -2.5430832743 -1.1693425767 -0.1136674601
H -2.1166527394 0.0684883736 -2.2731053405
H -2.8626002094 1.1585964847 -1.0853809571
H -1.1236393099 1.2375535803 -1.4153657390
