8
0 1
C -1.5120093347 0.1146913055 -0.2556489686
C -0.0697664369 0.0048440862 -0.1370288258
C 1.1223012226 -0.0860970855 -0.0377937525
C 2.4915656982 -0.1890374030 0.0770252170
N 3.6349154191 -0.2744395309 0.1732289562
H -1.8659601732 1.0193378107 0.2399331051
H -1.9966231350 -0.7467972573 0.2051009389
H -1.8044232982 0.1574980699 -1.3055048613
