19
0 1
C 1.9486200415 -0.8550205522 -0.3567642288
C 0.6239072689 -0.1255703086 -0.1730330970
O 0.5759254988 0.3007407741 1.2742233117
C 0.4036790519 1.1106079522 -0.9334164457
C -1.2877738001 0.9450223237 1.0576071307
C -1.7858711869 -0.1513298553 0.1771492601
C -0.5874317389 -1.0432469248 -0.2088803158
H 2.7821221504 -0.1568775464 -0.2604126080
H 1.9878253419 -1.2847820058 -1.3583310890
H 2.0825317162 -1.6567178590 0.3727840246
H 0.9545188501 1.1898450911 1.2483357334
H 1.2982285007 1.6995813975 -1.1349560439
H -0.2499272537 1.0445049539 -1.7987140106
H -1.3650141948 0.8040641504 2.1302182856
H -1.3906948095 1.9625356529 0.7194084766
H -2.2212616462 0.2887331044 -0.7193840773
H -2.5504864893 -0.7399599705 0.6915485694
H -0.7113060110 -1.5025474792 -1.1902784348
H -0.4611932904 -1.8419808986 0.5250175590
