16
0 1
C -1.3146289473 -1.2376172957 0.6549882250
C -1.0962156670 -0.0572379076 -0.2027242298
N 0.2708926251 1.4972148528 -0.3565274138
C -0.0322410383 0.2541056027 -1.1290403800
C 1.3229276095 -0.3095292489 -0.7310325132
C 1.2800493692 0.7051958270 0.4889141650
O 0.7735409484 0.2718178945 1.5894426697
H -0.4318441794 -1.8570262103 0.7612841637
H -1.6666968416 -0.9532910462 1.6442678933
H -2.1243542199 -1.8049783495 0.1666237054
H -1.9592630254 0.5979241374 -0.3107448749
H -0.4379798519 2.0277535771 0.1430864777
H -0.3001229536 0.3994511227 -2.1748262720
H 2.0831167432 -0.0687210459 -1.4728099582
H 1.3715379780 -1.3596055866 -0.4538208869
H 2.1960444511 1.3246836765 0.5640062291
