12
0 1
O 0.9821954685 2.3527066026 0.3154104151
C 0.4863031458 1.2745734988 0.2873496531
N 1.2588566286 0.0607234671 0.1058625029
C 0.4628003142 -0.9609452806 -0.1263158588
C -0.9851044787 -0.6591842200 0.2063173145
O -0.9927901970 -0.0647664568 1.5344986153
C -0.9383385684 0.8006737493 0.4159621807
H 2.2664162773 0.0579195803 0.1581529037
H 0.8667110088 -1.9471272820 -0.3155473626
H -0.4837258565 -1.2193747800 -1.7521107753
H -1.1727655190 -1.2093268352 -1.1830018355
H -1.7466742236 1.4986149563 0.2381782468
