17
0 1
C 2.2738896792 0.4189106275 -0.2791569382
C 1.6339881673 -0.5916605293 0.6713479256
C 0.6187097308 0.0584915463 1.5626377612
O -0.5236385266 -0.2959258877 1.6922880255
C -1.6798196720 -0.5707227533 -1.0800405161
C -2.7042431517 0.4128127156 -0.6124619469
O -0.7069196419 -0.2897247230 -1.7298791620
H 1.5363125673 0.7973641655 -0.9869894850
H 3.0766077850 -0.0504410327 -0.8476113731
H 2.7024383380 1.2636536467 0.2655545985
H 1.1577162846 -1.4073394096 0.1273953236
H 0.9900124973 0.9396264130 2.1303433234
H 2.4005124868 -1.0183463568 1.3295492557
H -1.8653468588 -1.6232332173 -0.7858395407
H -2.4647147476 1.4162383588 -0.9597164410
H -3.6913579776 0.1121804700 -0.9730004769
H -2.7330029604 0.3879239662 0.4793726661
