12
0 1
N 1.9145300258 -1.5719539772 0.8090675832
C 1.1338073333 -0.9282035319 0.2266316816
C 1.1265445777 0.6489033883 -0.6371413958
C -0.4356686285 -1.1593474428 -0.0692126350
N -1.3680834309 -0.1130651001 0.1490485899
C -1.0264186691 1.0957655412 0.2334220447
N 0.3310085205 1.4579628627 0.0937724770
H 0.5578256336 0.3619166317 -1.5299787981
H -0.4839255687 -1.5126945295 -1.0987043069
H -0.6864114968 -1.9846116081 0.5936377899
H -1.7517901599 1.8697478792 0.4648013748
H 0.7403828626 1.9036448865 0.9058725947
