10
0 1
C 0.6317420826 0.8531890439 -0.0949249692
C 1.2637916611 -0.3432424804 -0.1101517778
N 0.5859565916 -1.5549000882 0.1250163769
N -0.6538999962 -1.5185267897 0.1837173919
C -1.8291516845 -1.5127080516 0.5130317500
C -0.3236995349 1.7834527892 -0.2934257094
H 1.1277061302 1.8762368129 -0.4887017235
H 2.3360373042 -0.4455070510 -0.2276836378
H -2.6494857737 -1.6599055290 -0.1937342312
H -0.5208247804 2.4454103440 0.5720705300
