16
0 1
C 2.0968346199 0.1089109774 0.1262051943
O 1.3484127956 -0.2845400988 1.2517295258
C 0.0639539172 0.2782461990 1.2762543021
C -0.8347003013 -0.2260410044 0.1893932706
N -1.5320319328 0.5430939568 -0.6341242011
O -0.8921404472 1.7075252800 -1.0905833563
C -1.2232860643 -1.5387825705 -0.1630693130
H 3.0840226531 -0.3394686996 0.2249274535
H 1.6392533900 -0.2410836948 -0.8072811976
H 2.1964214786 1.2001500077 0.0750759751
H 0.1083338656 1.3732548425 1.2390704642
H -0.3816614266 -0.0201643858 2.2295142902
H -1.6168702548 2.3119957434 -1.2720164465
H -0.8107927844 -1.8875522600 -1.1063013831
H -2.0108183353 -0.5724520715 -1.0395719862
H -1.3431751733 -2.3173592215 0.5847814077
