14
0 1
C 1.7207900946 0.6235316968 -0.7066324892
N 0.4370488601 0.7415771990 -0.4845261289
C -0.1538357135 -0.3616751559 0.0187184850
N 0.5464800363 -1.3662787411 0.4300385960
C -1.6554306615 -0.3144316624 0.2624323692
O -2.2178471863 -1.2374594709 0.8123778431
N -2.2497222377 0.8001711884 -0.1945129468
H 2.1341543757 -0.2948551118 -1.1253714153
H 2.3138525778 0.0406320951 0.7739153481
H 2.3047651839 1.5320650059 -0.8240027854
H -0.0299660092 -2.0053048507 0.9744947710
H 1.7899354553 -0.6581675721 0.8710395019
H -1.6773089003 1.5409805187 -0.5617184817
H -3.2364008750 0.9230108611 -0.0584426670
