12
0 1
N -1.9769442990 -0.0465035875 0.1582941310
C -0.5930667385 -0.0031229810 0.0810034908
C 0.0924211274 1.2333150976 0.0880637681
N 1.3946851122 1.3828043568 0.0158149653
C 2.1541368701 0.2624797373 0.0936684843
N 1.5290420534 -0.9520671811 0.1273823847
C 0.1991640002 -1.1239259831 0.0216935964
H -2.4525294548 0.7815994253 -0.1591192429
H -2.4092785197 -0.8900359646 -0.1792935596
H -0.5012375322 2.1479924667 0.1080948072
H 2.6541399023 -0.9455387466 -0.2579892682
H -0.1890015217 -2.1331846397 -0.0594385572
