16
0 1
C -1.2104420678 0.4274565297 0.8990874980
C -1.7661282944 0.0006791375 -0.4140567457
C -0.2143868527 0.3423197958 -0.2587967021
C 0.7508846512 -0.8403549156 -0.2636397284
C 2.0713351956 -0.4527817149 0.4161863907
C -0.1339755863 1.3193598715 -1.2960867177
H -1.1135502791 -0.3316799603 1.6776993585
H -1.4825228220 1.4224811295 1.2499099407
H -2.4247427482 0.6705952033 -0.9639718978
H -1.9132383626 -1.0562947160 -0.6325714582
H 0.9380313453 -1.1247429543 -1.3081574512
H 0.3055456607 -1.7078767627 0.2500192723
H 2.7849870835 -1.2882346800 0.3999766320
H 1.9076373319 -0.1626499083 1.4644859117
H 2.5262929628 0.4002071533 -0.1067076949
H -0.8013672179 2.1669877916 -1.0021136078
