18
0 1
C 2.0501528732 0.0250864700 -0.2339576361
C 0.8617523651 -0.7748571792 -0.1216561772
C -0.4797379772 -0.2300713392 -0.1483400616
C -1.6212172621 -1.0172554817 0.3979501481
C -0.8207204635 0.9408945889 -1.0115289182
C 0.4262128063 1.2943810231 1.6515877706
N -0.2533639575 1.8325098366 2.4101780603
H 2.9892568350 -0.4911616936 -0.0743980343
H 1.3480571865 0.8642420397 0.9762198943
H 2.0948363270 0.7863669371 -1.0063225532
H 0.9450296315 -1.6357789067 0.5401099070
H 0.4668674841 -1.1965449595 -1.1237004470
H -1.3020199929 -1.9737035273 0.8097671043
H -2.0647655005 -0.4319065248 1.2086172572
H -2.4026987324 -1.1811861077 -0.3483065323
H -1.2129960516 0.6032662623 -1.9772241636
H -1.6101684613 1.5187748947 -0.5306061861
H 0.0296488906 1.5961086677 -1.1870094319
