11
0 1
O -0.6384953106 2.3827166195 -0.1430856920
C -0.4270085843 1.2172706537 -0.0903884138
C -1.4124199409 0.0428241208 -0.2240959908
C -0.5951093299 -1.2325664375 -0.0665013301
C 0.6002898708 -0.7982571941 0.1101542587
C 1.0169107730 0.5790449520 0.1472181291
O 2.0542078850 1.1458031560 0.2981808081
H -2.1984698693 0.1091081198 0.5316321790
H -1.9187769078 0.0708558735 -1.1917695029
H 1.8238542846 -1.7622388225 -0.0777190010
H 1.7037621294 -1.7403770414 0.7080355557
