10
0 1
C -1.7494847484 0.0726615166 0.0617847454
C -0.3778668099 0.3351565430 0.4991890969
N 0.5968479843 0.6969957884 1.0737090827
C 2.2329523748 0.0370607146 0.1179674008
N 1.7600394524 -0.5770961807 -0.8257991064
O 0.6511838834 -0.8664662326 -1.2918995093
H -2.4715867623 0.5509156780 0.7388705322
H -1.9329023026 -1.0085648368 0.0410114640
H -1.8952360730 0.4568298391 -0.9550485441
H 3.1860530013 0.3025071703 0.5402148379
