10
0 1
N 3.2511166546 -0.5357441249 -0.0667193592
C 2.1104263166 -0.4371855887 -0.0098314926
C 0.6885087069 -0.2521900424 0.0561695452
N -0.1803226456 -1.2074604828 0.1081248940
C -1.3931021612 -0.5161437612 0.1682041402
C -1.2471579930 0.9109716053 0.2012621212
N 0.1212588431 0.9903600020 0.0580366920
H -2.3169292381 -1.0486179150 0.3467536530
H -1.6805405717 0.1829847801 -0.8513102112
H 0.6308720884 1.8549515276 -0.0123179823
