10
0 1
O 2.4756927320 0.2515730945 -0.3330060405
C 1.3966771697 -0.1628409008 -0.2355647523
N 0.1853084434 0.4000044622 1.1064516605
C -0.0625426799 0.9606442426 -0.1432490792
N -1.0786500023 0.3466301319 -0.7759726304
C -1.3868048556 -0.6134620045 0.0846243464
N -0.6376080397 -0.6266048992 1.2058599861
H 0.9354237560 -1.1453008860 -0.4416789480
H 0.3427523899 1.9200951983 -0.4312403309
H -2.1647199136 -1.3440724389 -0.0871732117
