13
0 1
C -1.3913683820 -0.3343787214 -0.2935529315
C -1.3777464973 1.0272118797 0.2759362804
C 0.0456169645 0.5948313027 0.2949066022
N 1.0504441491 1.0263693503 -0.4648997645
C 1.9293128628 0.0078236356 -0.4043165766
C 1.4101658214 -1.0574469090 0.3173826613
N 0.2055310824 -0.6922870407 0.8018102042
H -1.2032565577 -0.4401736354 -1.3550726944
H -1.9054232428 -1.1473447209 0.1934214700
H -1.5395270950 1.8444044592 -0.4171633992
H -1.8685329405 1.1488874081 1.2347690481
H 2.9026284688 0.0822433043 -0.8701963582
H 1.8470093663 -2.0176973125 0.5428784579
