19
0 1
C -1.3463769057 -0.4555648878 1.5838473003
O -0.0988534866 -0.2723813678 0.9582775315
C -0.1512883675 0.4250047007 -0.2839448593
C -0.6908932786 1.8425372982 -0.1231378479
C 1.2405504494 0.4253967090 -0.8556307743
C 1.6952294367 -1.7230786413 -0.9557885173
O 0.4943839219 -2.3179473747 -0.9203684634
H -1.7365526285 0.4723980413 2.0131823014
H -1.1971510386 -1.1722670192 2.3910242486
H -2.0906727439 -0.8569161563 0.8829001508
H -0.8172332450 -0.1345598609 -0.9603507840
H -0.0731863487 2.4074867985 0.5779195557
H -1.7208870939 1.8478094269 0.2362949169
H -0.6778717317 2.3559386643 -1.0854177403
H 1.9899846990 0.7507183665 -0.1373175916
H 1.2895875139 1.0450787815 -1.7546503769
H 1.7061646367 -0.6304182406 -1.5335018924
H 2.1244252606 -1.5884046560 0.0431957609
H 0.1121489506 -2.2524375819 -0.0342149186
