18
0 1
C 3.0838514941 0.5553434378 -0.2355703496
N 0.9711758301 0.1963439023 -0.9379277260
C 0.3923582917 -0.0978629690 0.1880540966
O 0.7008959978 -0.3278604582 1.3384121379
C -1.1153700440 -0.1002442262 -0.3123933253
C -1.6549262222 -1.5014315025 -0.0617955564
C -1.8345006477 0.9840958718 0.4785495814
H 3.3946095444 1.3270247155 -0.9312161885
H 3.8406376509 -0.2123435802 -0.0760685922
H 2.7080133794 0.9387911899 0.7042211855
H 2.2840148911 -0.0777760181 -0.8174905768
H -1.1725890479 0.1279131448 -1.3780305487
H -1.5590531941 -1.7618832922 0.9928792830
H -1.1180897012 -2.2450377979 -0.6523679303
H -2.7103438795 -1.5434305756 -0.3394707535
H -2.8932058717 0.9925563286 0.2103207471
H -1.7451285953 0.7943503664 1.5488163798
H -1.4222008757 1.9714484627 0.2659981360
