15
0 1
C -2.3641120852 0.0102820056 -0.3993018946
O -1.2799342771 -0.4003951236 0.4454716573
C -0.1396368016 0.2163847223 0.2915395617
O -0.1078665262 1.4036167397 -0.2505365069
C 1.0057885167 -0.2737078762 1.1561903468
C 1.8996977975 -0.6277234269 -0.0384072952
O 0.9979191479 -0.3535365225 -1.0980864866
H -2.0884591789 -0.1414731594 -1.4426484704
H -3.1975094966 -0.6321009558 -0.1297161487
H -2.6074805845 1.0561562459 -0.2263781112
H 1.3592583110 0.5252184582 1.8078820713
H 0.7060602782 -1.1323314538 1.7539439370
H 2.8149740756 -0.0302964278 -0.1056381125
H 2.1821345610 -1.6834496676 -0.0343838052
H 0.6390122622 0.9557304422 -0.9615397426
