14
0 1
C -1.3899638994 -0.8957403209 -0.4929377170
C -1.0396441021 0.5379954915 -0.4473847153
C 0.1162710884 1.0586601496 0.1278822905
C 1.2966340615 0.2550058081 -0.4042022949
C 1.9095063172 -0.4216246649 0.6259841219
O 1.4179553746 -0.4113340128 1.7885383773
H -0.7001771758 -1.4997068154 0.0937279652
H -2.4179070690 -1.0198019004 -0.1353202711
H -1.3859643535 -1.2618905119 -1.5244959410
H -1.7657252653 1.2116219583 -0.9064718929
H 0.3009601956 0.5888681811 1.2134257830
H 0.1986468178 2.1433433441 0.1530953029
H 1.5613842802 0.2283216174 -1.4492600323
H 2.8688017298 -0.9230073236 0.4541520236
