11
0 1
C -1.4032803714 -0.1126281624 -0.5716034579
N -0.6645019333 -1.2005917155 -0.2053364327
C 0.0228385801 0.1518728857 1.0180029843
O -0.3523279197 0.0636417693 2.1604236467
C 1.2749981387 0.2658965203 0.3491304911
C 2.3756597809 0.4308995612 -0.1456619004
H -1.3959158802 0.2954637853 -1.5975558740
H -0.7547870618 0.9248512908 0.1658706408
H -2.3563548575 0.0087209805 -0.0425451094
H 0.0634431326 -1.3907479457 -0.9039462600
H 3.3464843916 0.5932760305 -0.5661487284
