16
0 1
C 2.3138881145 0.1181206177 0.3173585634
O 1.2340398112 -0.8028627011 0.3625045143
C 0.0772598170 -0.3177743118 -0.0378929570
C -0.5520233709 0.9690765999 0.0432801994
C -1.9326329867 0.3437527217 0.1818138122
C -1.2347583422 -1.0461230435 0.0876213568
H 2.0905847604 1.0022468440 0.9185670175
H 2.4893383351 0.4019723285 -0.7260075939
H 3.1826136708 -0.3976840853 0.7166160920
H 0.4274233606 -0.4223774255 -1.7379780048
H -0.1467035384 1.9476732752 0.2515238981
H -0.1212540159 0.4787928799 -1.1883420365
H -2.6340840490 0.5496351542 -0.6299247227
H -2.4450851522 0.5104321655 1.1315236738
H -1.2488301344 -1.6052530298 1.0231325018
H -1.5017842795 -1.6983719894 -0.7395923144
