17
0 1
C 2.0195029180 0.0183010945 0.0933473075
C 0.5136223589 -0.0001718971 -0.0507934760
C -0.3509868919 -0.8478797697 0.9082523266
C -1.5771900216 -0.4612088184 0.0863390821
C 0.0252158810 -0.7054354388 -1.3356284385
C -1.5120062084 1.0520371643 0.0828978274
C -0.2207703555 1.3498090544 0.0648931405
H 2.4829134879 0.5779170057 -0.7231278846
H 2.3189789419 0.4868242992 1.0332853725
H 2.4178275513 -0.9963942623 0.0682806330
H -0.3909071154 -0.5055949018 1.9431942856
H -0.1064375178 -1.9084091179 0.8477945515
H -2.5403041790 -0.9561574610 0.2142834903
H -0.2037099063 0.0541184613 -2.1005483836
H -1.2088009712 -1.0333793668 -0.9777461686
H -2.3713935035 1.7054623604 0.1088754992
H 0.2460225317 2.3257465941 0.0791808350
