19
0 1
C -2.0723009164 -1.1085121344 -0.2529860231
C -1.1325291596 0.0540278859 -0.3325080458
C -1.4476343183 1.2850170460 0.3138594817
C 0.5103568415 -0.8844673400 0.6140884290
O 1.3709271209 -1.3162759087 -0.4281691877
C 1.8885459316 -0.3926725897 0.5185611259
C 2.2359307511 0.9788003638 0.0120601066
H -2.9021622396 -0.8951041526 -0.9326219069
H -1.6007809564 -2.0423831937 -0.5551549269
H -2.4858205888 -1.2157980762 0.7500652394
H -0.5246644612 0.0966831114 -1.2316699829
H -2.2549812549 1.3144150722 1.0311830791
H -1.0054635990 2.2063786005 -0.0328077938
H -0.4006235271 0.3683826854 0.6988928228
H 0.2685659634 -1.6540352866 1.3528535972
H 2.6273485291 -0.8341492813 1.1870882348
H 1.4728744240 1.3548096597 -0.6695803582
H 3.1866891004 0.9550134226 -0.5233601381
H 2.3303953594 1.6793901155 0.8439272470
