13
0 1
C -1.5460138462 -0.1534690829 -0.5699056359
C -1.6204223206 -0.1245686263 0.9342088691
O -0.8484913073 -0.6932335550 1.6923877542
C 2.2215425811 0.8502671850 -1.0605080089
C 1.9559090918 -0.1970913604 -0.2945277760
N 1.7926014270 -1.2133876357 0.3815488386
H -2.5506051687 -0.2767817075 -0.9999168699
H -1.1601811522 0.8184236959 -0.9185636806
H -0.8740880497 -0.9428231699 -0.9225409906
H -2.4531101357 0.4889505618 1.3528810516
H 0.9149670318 -1.2425690255 0.9309114455
H 2.7734153654 1.6998471144 -0.6635174597
H 1.9125414832 0.8644826060 -2.1039725376
