15
0 1
C 0.3474794456 1.4992058610 -0.0074280915
C 0.4565628638 0.0893036168 0.5742398837
O 0.9127591212 0.1438344356 1.8874387293
C -0.8951426478 -0.6123731550 0.5023710453
N -1.3980451782 -1.0369857751 1.5720870095
C 1.3901105594 -0.7128079962 -0.2628365120
N 2.0845577617 -1.3285219031 -0.9367705113
H 1.3186780649 1.9878599108 0.0529007841
H -0.3711668049 2.0664120911 0.5840710475
H 0.0287760990 1.4748869305 -1.0505132354
H 0.2912518591 -0.3848042036 2.4139340843
H -1.3454571975 -0.6997761140 -0.4897086058
H 0.0426598325 -0.6599970820 -3.0059890027
H -2.2998991973 -1.4839044620 1.4399276621
H -0.5742855816 -0.3668731547 -3.3062882872
