14
0 1
N -2.1336570390 -0.1157373106 0.2267880563
C -1.1925627039 -0.1008908778 -0.7239674332
C -0.0518255888 -0.9715925807 -0.7238508862
C 0.8615489910 -0.2106238394 -0.0388048646
N 2.0557990602 -0.6019045618 0.5123733950
C 0.2548473780 1.0826374803 0.2279687048
N -0.7380171859 1.2136936566 -0.8060864148
H -2.3422640693 -1.0596975382 0.5392410226
H -1.1005379013 0.4584001645 1.0041666109
H -0.0852874698 -2.0477974724 -0.8005331551
H 2.7601642204 0.1073639274 0.6117848789
H 2.4150073380 -1.4903350513 0.2116267142
H 0.8673633281 1.9475495833 0.4704029567
H -1.4899213578 1.8336024198 -0.5321175856
