12
0 1
O 0.8952736522 2.2285255198 0.7608886659
C 0.4993506961 1.1669474534 0.3490933818
N 1.2452321523 0.1078876063 -0.0611028841
C 0.4738322378 -0.9894181506 -0.6043964679
C -0.9673158345 -0.5669862451 -0.5222693516
O -1.2558339496 -0.2380242531 1.1777387229
C -0.9499152682 0.7395639392 0.1690379299
H 2.2429347879 0.1001023336 0.0564653466
H 0.6442351927 -1.9340995605 -0.0831471460
H 0.6866534615 -1.1541126539 -1.6675657929
H -1.8039548792 -0.9445921669 0.4981044945
H -1.6890662491 1.5216901777 0.0364521009
