16
0 1
C -2.1267378162 -0.0346370685 0.1645078153
C -0.8566234785 -0.3698676703 -0.5818595185
O -0.2065487728 0.6942219742 -1.3089247240
C 0.5056833822 0.0732873599 -0.2076662841
C 1.6915271266 -0.7762800766 -0.6304827506
C 0.7646712654 0.9672139448 0.9904273697
H -2.9640347654 0.0643426066 -0.5413964958
H -2.0404973618 0.9074314143 0.7174090677
H -2.3752332908 -0.8377625896 0.8740357159
H -0.9132080391 -1.3095183519 -1.1483792403
H 1.4414289837 -1.3853143053 -1.5084123666
H 2.5476578317 -0.1358099885 -0.8885036368
H 2.0015178078 -1.4460231950 0.1850962911
H 1.0081927823 0.3628087746 1.8764684173
H -0.0985917401 1.5996324285 1.2228525283
H 1.6207960850 1.6262747427 0.7848278113
