17
0 1
C 2.0966042515 0.2083588883 0.2746494633
C 0.6490033112 -0.0677862647 -0.0253969885
C 0.0509689729 -1.3830741707 0.0866797992
C -1.4051975108 -1.1389789305 0.3098031980
C -1.6839110197 0.2241133092 -0.3367582147
C -0.4016298741 0.9411982977 -0.0405056731
O -0.2548659354 2.2047149858 -0.5255472422
H 2.2366940873 0.2823225135 1.3535760081
H 2.4480443803 1.1361257109 -0.1814234184
H 2.7214027712 -0.6051759578 -0.0942217205
H 0.5841906344 -2.2203193642 0.5179298952
H -1.5304251861 -0.9710173203 1.4032227620
H -2.0899274580 -1.9306925914 0.0078768123
H -1.8191837395 0.1346337714 -1.4322867422
H -2.5669327313 0.7196320759 0.0629007492
H 0.4482416732 -0.1734042973 -1.1457111627
H 0.5174793727 2.6119913443 -0.1275415251
