14
0 1
C -2.1334433153 0.6716925676 0.6836671376
N -0.9210058328 -0.0294269542 0.3181366930
C 0.8884597287 -2.4581090461 -0.9881974580
C 1.3659259356 -1.2683703060 -0.6311059648
C 1.3766973964 0.0284026506 -0.3313477124
C 0.1172651673 0.6484348246 0.0929938424
O 0.1347338441 2.0048659745 0.2267915666
H -2.4100251988 1.4284299437 -0.0574762386
H -2.0289175917 1.1831398205 1.6460761621
H -2.9475707366 -0.0471980596 0.7669415564
H 0.9930471172 -3.2525596995 -0.2414278363
H 2.2986234658 -1.8517163926 -1.0441375064
H 2.2935013367 0.5992772660 -0.3717760871
H 0.9762416833 2.3575444104 -0.0685321544
