11
0 1
C -1.4590347483 -0.2566994283 0.1025015621
N -0.0414922767 -0.0267162263 0.1637193879
N 0.8229086827 -1.2664301046 0.5758277784
C 1.4120360918 -0.6721000972 -0.3850791078
O 1.8795332416 0.7471134189 -0.1609611279
C 0.6823908225 1.1747408155 0.2581777987
O 0.2987191848 2.2654075851 0.5245648634
H -1.6659140772 -1.0482490526 -0.6164451755
H -1.8436513531 -0.5482872530 1.0807180630
H -1.9264934388 0.6713943334 -0.2250980986
H 1.8409978707 -1.0401729909 -1.3179269438
