19
0 1
C 1.6694341924 -0.1040539674 -1.2110466450
C 1.2792278438 0.6010833489 0.0732764616
O 0.9580070296 1.9980432518 -0.1597606073
C -0.4585634172 1.7629700980 -0.0447701747
C -0.0826019877 0.5377223378 0.7566853479
C -0.9557113753 -1.0166721966 1.5205412154
C -1.1448913646 -0.9394008135 -0.2851083464
H 2.6247859468 0.2932959791 -1.5578868406
H 1.7910223524 -1.1763702178 -1.0403193540
H 0.9411820232 0.0449484829 -2.0089381394
H 2.1060232222 0.5143445314 0.7890651354
H -0.9228158502 1.6451598039 -1.0380076681
H -0.9656496499 2.5684647375 0.4924991705
H -0.0116381019 -1.2595769982 1.9970744330
H -1.4949380607 -1.9772363329 1.4248178763
H -1.5593538226 -0.3902733752 2.1655862335
H -0.7486047066 -1.9264492435 -0.5043965411
H -0.8418768319 -0.2819237012 -1.0876945425
H -2.2315094417 -0.9471997251 -0.2743880145
