14
0 1
O -1.7872411585 2.0953663549 1.0049491775
C -0.7106718223 -0.5580687492 -0.5581844669
C 0.1969161143 -0.8976396881 0.6488317901
C 1.3961464583 -1.1168582290 -0.3033504466
C 0.6460335759 0.1701295966 -0.7162027625
O 0.5879029655 0.5555223631 0.7380289245
H -0.9208029533 1.6282784067 1.0591468318
H -1.5678375837 0.0860972354 -0.3356749081
H -0.9333056063 -1.3681347811 -1.2650728840
H -0.0487368930 -1.3941243825 1.5939116611
H 2.3860513593 -0.9657600730 0.1403372982
H 1.3526689337 -1.9737528123 -0.9882012625
H -1.6219909832 2.7939743102 0.3479777619
H 0.9441985933 0.9572764482 -1.4186777144
