16
0 1
C 1.8222101035 -0.3700729799 -1.6125283151
N 1.9004884149 0.5396427859 -0.5137288601
C 1.5788349772 1.0492235131 0.4728169162
O -0.2076795054 0.6588247852 1.4678102384
C -1.2434646168 0.7633081516 0.5556587050
C -1.7972534463 -0.6296998338 0.2506429982
O -0.7181402059 -1.5276801293 0.0556991069
H 0.9523301184 -1.0143398268 -1.4712567722
H 1.7328875471 0.2080289516 -2.5306065689
H 2.7411743763 -0.9521065580 -1.6480285797
H 1.1162640793 1.5475661483 1.3442326574
H -2.0599591520 1.4030204669 0.9253248637
H -0.9066395779 1.2144718078 -0.4022955595
H -2.4175882372 -0.9714647263 1.0889096754
H -2.4073427188 -0.6331395766 -0.6555399938
H -0.1224711564 -1.2859389796 0.7812604882
