13
0 1
C -1.7957174027 -0.0092188305 0.2374541406
C -0.7282867948 0.8482405880 -1.0303838140
C -0.6271306892 -0.5605156231 -1.0509837998
N 0.5928559974 -1.0484412741 -0.5783040578
C 1.1896532996 0.0398988555 -0.2206034348
N 2.4097070201 0.1560941923 0.3350633837
O 0.4973243235 1.1781621759 -0.3995431887
H -2.7923028545 0.0927697647 -0.1745383537
H -1.6772010104 -0.9652769550 0.7523347434
H -1.5852151338 0.7855949705 0.9453588771
H -1.2771973640 -1.2075894428 -1.6222642000
H 2.8340825056 1.0649318663 0.3539206136
H 3.0079511031 -0.6480412875 0.2961300902
