12
0 1
O 1.2083822588 -2.9048793395 0.6440131179
C 1.1289034515 -1.7328154360 0.7475575511
C -2.0993559387 1.2701657327 0.3387053935
C -0.9200037709 0.6677659623 0.1450898302
O -0.1927727600 0.1561551169 1.2082935220
C 1.0399159858 -0.4105802523 0.8789338226
H 1.9740941324 -0.3271495360 -2.8154082434
H -2.6467518995 1.6661026654 -0.5129463599
H -2.5299283355 1.3739378665 1.3329377049
H -0.4580218162 0.5362100310 -0.8348198521
H 1.9221021097 0.2220376929 0.7959537381
H 1.7637145826 -0.3355935040 -2.0994742251
