11
0 1
C 0.9122008550 1.0262771977 -0.0906980414
C 1.0724581872 -0.4359567094 -0.0109223461
O -0.1022882752 -0.6034679658 -0.8072608879
C -1.4292271825 -0.3626112679 0.0890928730
O -1.1604051874 0.3024007440 1.1502114081
H 1.0219978564 1.4790274662 -1.0740961959
H 0.5538943672 1.6259031171 0.7372944289
H 1.9330501114 -0.8632004461 -0.5382398856
H 0.9650768805 -0.8358084101 1.0026013914
H -2.0615537364 0.0901159486 -0.7039254372
H -1.7063098761 -1.4383306742 0.2307336928
