17
0 1
C 2.6484643346 -1.1648099855 -0.5969909464
C 0.4668016751 0.3022187024 0.7832339090
C 0.0251569024 1.5424068591 -0.0090710138
C -1.4474542511 1.3034962657 -0.2067636925
C -1.8178462792 0.0827839290 0.1597832072
C -0.6376533279 -0.7485070254 0.5909621740
O -0.3235087448 -1.7353833685 -0.3912254731
H 2.1708969689 -1.0293684196 -1.5887908517
H 1.4606858446 -0.0767158719 0.4816090621
H 2.3332402480 -2.1923896288 -0.3341996106
H 0.5577770127 0.5476601391 1.8430877090
H 0.5376895230 1.6328463773 -0.9721551452
H 0.2235421301 2.4696207770 0.5318555991
H -2.1129231043 2.0541938200 -0.6168668470
H -2.8189969891 -0.3243349420 0.0901108682
H -0.8166886830 -1.3167006543 1.5049922784
H -0.5159492598 -1.3632859738 -1.2556782267
