14
0 1
C 2.7803468721 0.3078139506 -0.1360127264
C 1.3701444457 -0.0396766461 -0.3107626569
C 0.2054889612 -0.3573299539 -0.4890472252
C -1.2204411826 -0.6675942593 -0.6210780330
C -2.0199849866 -0.1467308337 0.5971343422
O -1.8979101778 1.2562553548 0.7620145991
H 2.9164408640 1.0309242452 0.6823806373
H 3.3818719217 -0.5820568143 0.1031232069
H 3.1949071806 0.7573469427 -1.0508965323
H -1.6200438937 -0.1999346478 -1.5348321453
H -1.3704092728 -1.7553633450 -0.7198400160
H -3.0884611466 -0.3458777450 0.4409168857
H -1.6939384835 -0.7000166463 1.4975039062
H -0.9380111018 1.4422403980 0.7793957579
