8
0 1
O -2.2638891653 0.0523413933 0.9106366890
C -1.1066444346 0.0493381222 0.7818009170
C 0.1481554535 0.4938057790 -0.9309035324
O -0.2491416749 1.2823508350 -1.7239013096
C 1.1104338778 -0.3463364936 -0.3287177827
O 1.3101502370 -0.2564076494 0.9505150987
H 0.0382043262 -0.1349824669 1.3459731387
H 1.2357823804 -1.3103295196 -0.8623622187
