18
0 1
C -2.3477227666 -0.4806958947 -0.2459375644
C -2.0786926603 0.9157339455 -0.8183081202
C 0.8207221215 0.7215040027 1.0638974651
O 0.1407224885 0.1215826458 2.0147552619
C 1.4174651031 -0.2534303477 0.0831671405
C 2.9350616930 -0.0252720322 -0.0710393966
H -3.2149794166 -0.9522346082 -0.7297021492
H -1.4855176116 -1.1477802488 -0.3969650803
H -2.5503924545 -0.4321496128 0.8332375797
H -1.8508692619 0.8689112095 -1.8932373304
H -2.9530515300 1.5694049505 -0.6906353206
H -1.2289064541 1.3980525133 -0.3120361162
H 0.1192698059 -0.8840634943 1.9283719271
H 1.2052363247 -1.3213561553 0.3361753102
H 0.9281267181 -0.0446807586 -0.8838846664
H 3.3434834909 -0.6806410122 -0.8514219924
H 3.1364003172 1.0177962258 -0.3442005650
H 3.4615220927 -0.2388673284 0.8688466174
