19
0 1
C 2.2798371013 0.4152448347 1.0664444595
C 1.1002922436 0.7107394529 0.1565858799
C 0.2499759880 -0.4734886783 -0.1387906739
O -0.4597656330 -0.8094059734 1.6983162875
C -1.0541080905 -0.4033387849 -0.6762595389
C -1.6273519739 0.8712613886 -1.2433680105
O -1.4101682679 -1.5637892644 -1.4017611778
H 1.9148295566 0.0709649224 2.0338772416
H 2.9202879754 -0.3617786329 0.6425424666
H 2.8902513638 1.3067494069 1.2151217740
H 0.4827579628 1.5066443484 0.5753548920
H 1.4488825182 1.0752458960 -0.8199897063
H 0.7547244102 -1.4300529132 -0.2300037733
H -0.4246072484 -1.7232393022 2.0013304352
H -1.2272420895 -0.5987416036 0.6449027472
H -1.2743613589 1.0445407500 -2.2645106314
H -2.7172611679 0.8134168031 -1.2774800460
H -1.3692779214 1.7377218555 -0.6345467080
H -2.3289913685 -1.7659335054 -1.2198519174
