16
0 1
C -2.3971096978 -0.3182857606 0.1234881123
C -1.0425049986 0.3098448284 0.0259708030
C -0.7687975061 1.6143710565 0.1453599518
C 1.4822924148 1.3601734421 0.2065794343
C 1.2787361601 0.0556017989 -0.0279013309
C 2.4858977533 -0.8293858926 -0.1278483428
N 0.0301256345 -0.5256128462 -0.1191396962
H -2.4391059407 -1.0336197550 0.9477136609
H -3.1598408810 0.4402010231 0.2843169357
H -2.6418314859 -0.8520424565 -0.7984862478
H -1.4906101069 2.3714378430 0.4142489202
H 0.2119523681 2.0488532415 -0.2051351484
H 2.5377525928 -1.3031131735 -1.1111434177
H 3.3918843930 -0.2430573154 0.0148052358
H 2.4537473069 -1.6093473737 0.6366396534
H -0.0794390066 -1.4802686598 -0.4127255239
