15
0 1
N 2.2921457702 1.3214425631 -0.4487405198
C 1.1323263035 0.7069442425 -0.1676812791
O 0.4369895331 1.2239716421 0.7883579667
N 0.6958468944 -0.3416150681 -0.8142645907
C -0.6103539597 -0.9145636792 -0.4676361907
C -2.1059839005 -0.5514707737 1.4487151147
O -1.9717002941 0.5309275253 2.0000455555
H 2.5932973632 2.0584876653 0.1610752243
H 2.9501713964 0.9183251561 -1.0872381066
H 1.2735949093 -0.6884248261 -1.5683862418
H -0.4729812436 -1.9875720546 -0.3132400420
H -1.2818660443 -0.7583435284 -1.3165936097
H -1.6579786413 -1.4696202965 1.8614810380
H -2.8694137846 -0.7189119148 0.6725449889
H -0.3940013018 0.6714493470 0.8773836922
