12
0 1
O -0.5091578801 -1.3559788983 -0.9671300406
C 0.5201295450 -0.5105593825 0.2077419596
C -1.4985419335 -0.1760463673 0.2320512328
C -0.3433200048 0.6977752171 0.0041691693
O 0.6228478887 1.3523729772 0.8850241243
C 1.6724524101 0.5054850821 0.2160032512
H -0.5618479527 -2.2282520544 -0.5229588727
H -2.3402748286 -0.1981822452 -0.4715973694
H -1.6793467101 -0.5963641596 1.2180861881
H -0.3867558053 1.2178338480 -0.9694351982
H 2.5200207646 0.3016916087 0.8840688009
H 1.9909525068 0.9887353743 -0.7255672453
