16
0 1
N 2.6706823247 0.7004433981 -0.4845785723
C 1.4446627613 0.4420033943 -0.2863028673
C 0.9505018232 -0.9073256315 -0.1631557938
C -0.4604763932 -1.1955376299 -0.0345673331
C -1.3715517186 -0.0375017708 -0.3228224199
C -0.7573551543 1.2189418496 0.2646943571
O 0.5325500489 1.4771931624 -0.2493625456
H 2.8033172571 1.7036110247 -0.5777604530
H 1.6606282570 -1.7106835878 -0.2740163652
H 0.0993540335 -1.1807085626 1.1014146805
H -0.8875996936 -1.4073678319 1.3822788179
H -0.7876893808 -2.1888831643 -0.3240046929
H -1.4253120325 0.0502600550 -1.4120437324
H -2.3774571742 -0.1985190425 0.0668986096
H -0.7156062280 1.1285708612 1.3597578716
H -1.3582517303 2.0960984761 0.0274564390
