10
0 1
N 1.8709566303 -0.2411209111 -0.4341802594
C 1.4585112391 0.5786573524 0.4041059947
C -0.3074063071 -0.6990572161 0.5614411492
C -1.4634381031 -0.6152836482 -0.1826109530
C -1.7034027140 0.7153215175 -0.3515706472
O -1.8611705757 1.8317069300 -0.4624859332
O 1.3754392906 1.5141813416 1.1035151810
H 2.7741499384 -0.0089186812 -0.8316911014
H -0.0065606189 -1.7214647610 0.8014243733
H -2.1370777797 -1.3540229240 -0.6079478039
