12
0 1
N 2.0666695647 0.1833789236 0.1334442028
C 0.7357768842 0.0791709609 -0.2471184204
N 0.0203816224 -1.1603985263 -0.4746298313
C -1.1752680058 -1.1187287874 0.1390151615
C -1.5202631304 0.1506394705 0.5085764096
C -0.5104624091 1.0044817554 -0.0332354318
N 0.1568956027 0.6301726458 -1.3254500772
H 2.6869562357 0.2040272748 -0.6640082869
H 2.3440885739 -0.5227544341 0.7975256340
H -1.7945262787 -2.0051486239 0.1533128779
H -2.3902012379 0.4756206967 1.0586607879
H -0.4821274215 2.0733456439 0.1370679738
