11
0 1
N -1.4919368096 0.0797508026 -0.3346950921
C -0.5525416819 -0.2086150597 0.8271828561
C -0.1319775856 1.0669505850 0.3711824715
O 1.0278202210 1.0669634862 -0.2744878098
C 1.5404721472 -0.2714544650 -0.2039137498
O 2.6260405494 -0.5392090731 -0.6043135165
N 0.5609313989 -0.9972246913 0.3791562088
H -1.1949155293 -0.2118554280 -1.2544073037
H -2.4734132952 -0.0341832525 -0.1459163231
H -0.5706392121 2.0362679607 0.5538996335
H 0.7691507971 -1.9193718648 0.7164156252
