15
0 1
C -0.7353352677 1.2658537168 -0.2318903258
C 0.2198603840 0.1502980180 0.1163931857
C 1.4140107984 0.0031243669 -0.7880631536
C 2.0100191079 0.7403108943 0.3978072910
N 1.2374827988 0.6739983191 1.3369650300
C -0.4382006469 -1.2657848165 0.6839261449
N -1.2678535544 -1.5524627664 -0.3447786163
H -0.1814137906 2.1986087889 -0.3427065755
H -1.2537848706 1.0511100527 -1.1636729046
H -1.4681729213 1.3978222094 0.5642591659
H 1.4090694024 0.5131821959 -1.7476504128
H 1.8362724845 -0.9949617290 -0.8535134544
H -0.8413656885 -0.9994484600 1.6692787885
H 0.4262363607 -1.9280897145 0.7942303813
H -2.1918165966 -1.1739720757 -0.1511755443
