15
0 1
C 1.8992514019 -0.4835165237 0.4537547648
C 0.5614280098 0.1608556907 0.6677786436
C 0.0414655082 1.1731732120 -0.1317500072
O -1.2525467369 0.6944569971 -1.6966548603
C -1.4163556264 0.8540845215 -0.3701198677
C -1.1673316909 -0.5518305233 0.2180399728
O -1.1415342729 -1.4652518761 -0.7162839881
H 2.5284231118 0.1294222971 -0.1943778833
H 1.7632730495 -1.4469690861 -0.0467155680
H 2.4291373012 -0.6638198964 1.3888444230
H 0.1717385096 0.1489013677 1.6814364717
H 0.5705735581 1.7614134170 -0.8730402020
H -2.2522360711 1.4530892114 -0.0007825163
H -1.5266258038 -0.8792348357 1.1868799129
H -1.1779812481 -0.8419519732 -1.5398732960
