15
0 1
C -0.5211875644 1.4559124027 0.1770218031
C -0.1414027812 0.1042963465 0.6938114004
C -1.2769055797 -1.3414753010 0.0628561557
N 0.3162957399 -0.9617396777 -0.6215432610
C 1.2044288950 -0.3936453821 0.3759053764
C 2.1781261736 0.5211772487 -0.1866001985
N 2.9611716584 1.2540719483 -0.5968700858
H -0.2492058595 2.1771587295 0.9524475376
H -1.6020734836 1.5301692797 0.0382910864
H -0.0270873887 1.7781196097 -0.7498624793
H -1.5566553502 -1.7933020115 -0.8967781983
H -1.0897102257 -2.1183298286 0.7925208521
H -2.1177496764 -0.7201678427 0.3760347784
H 0.2677311079 -0.3689467632 -1.4470451120
H 1.6711363347 -1.1239517578 1.0331743447
