9
0 1
N -1.5854441858 -0.5871717185 -0.1681668428
C -0.8607982761 0.4782110393 0.0129600469
C 0.5502751894 0.5454782228 -0.0456569074
C 1.4116839661 -0.6534267927 0.1268797652
N 0.8402750452 -1.6641979823 -0.3393129432
H -2.5382751684 -0.4507894025 0.2063949270
H -1.3080508438 1.4568406196 0.2734955838
H 1.0244196489 1.4256243163 -0.4921359686
H 2.4704116243 -0.5688823019 0.4258683393
