11
0 1
N 2.4843277700 -0.9026318456 1.0451101100
C 1.5321673797 -0.7076598235 0.4381594804
C 0.3421025340 -0.4859911103 -0.3551394971
C -1.0893613519 -0.5381039926 0.1794208595
O -1.3744740325 0.5428142186 -0.6135860556
C -0.1105948306 0.8541942928 -0.8211094916
H 0.3334794806 -1.1381989074 -1.2366821672
H -0.4495698796 0.7617030910 1.4766612762
H -1.7932061118 -1.3613314554 0.1589848934
H -0.0260293677 1.3528235209 1.1657677780
H 0.2131894100 1.6731780114 -1.4399141859
