14
0 1
C -1.1709278558 -0.2067864521 0.8004339429
C -0.4186851985 1.0911389760 0.3600744904
C 1.0364274357 1.0376911377 0.6765370664
C 1.0296553510 -0.9691579716 -0.2051222429
C -0.4456326576 -0.9694814962 -0.3472594260
C 0.0788149797 0.3642334975 -0.8526688172
H -2.2466269329 -0.1443505554 0.5932170651
H -0.9908024348 -0.5529233801 1.8250532779
H -0.9516090366 2.0345577605 0.2249629324
H 1.5459658635 1.8105343222 0.0568985437
H 1.5651832349 -1.3096238527 -1.0963091520
H 1.5349764516 -1.2053229706 0.7229415030
H -0.9563696569 -1.6896731858 -0.9880404669
H 0.3812864566 0.7161301705 -1.8343117167
