12
0 1
O -1.1176551450 0.1143078460 -1.5506700530
H -0.4232165790 -0.3384514260 -1.0538257920
C -0.5857106610 1.3306403920 -2.0459226970
H -1.3874232410 1.8448359560 -2.5716866380
H -0.2297527600 1.9826425470 -1.2413827330
H 0.2368511230 1.1651188650 -2.7477447070
H -1.3758441770 0.5602374140 0.8340922150
H 0.0989761580 1.4295816980 1.2826239290
H -0.5640625980 0.2245928620 2.3928389080
H -0.1171036730 -1.8209699750 0.7367650530
C -0.4226016010 0.4784142150 1.3469973190
S 0.6524152640 -0.7433163830 0.5214572290
