17
0 1
N -1.8262731540 2.2398072980 0.1981390760
H -1.3275360990 1.7149792600 -0.5154075300
H -2.8055166640 2.2402047570 -0.0584919820
H -1.5088445370 3.1995041210 0.1435621360
H -0.6143838370 -2.1214762460 -0.2389524290
H -1.9160348510 -0.9258536460 -0.2548378870
H -0.7187031870 -1.4598447840 2.0881941070
H 0.9495418530 1.6180437200 0.4224914760
H -1.0501694310 0.2219887190 1.6570951580
H 2.2585923130 0.5916954120 -0.1821015720
H 1.3329471190 0.1302981020 2.2896439290
H 1.5904446900 -1.2501874880 1.2242034120
S 0.1363668740 -0.0178292460 -1.1702979340
C -0.8610772310 -1.0798296150 -0.0434533110
C -0.4840964170 -0.6661746430 1.3783565800
C 1.0078939280 -0.3374032240 1.3600270070
C 1.2317482710 0.5971748570 0.1735144620
