12
0 1
H 0.9402161320 0.7745748130 -0.4192669550
H 0.9126510720 2.6310863100 -1.0146834350
S 1.3462513520 1.9701561980 0.0682478520
H -0.9709823770 -2.0035715160 1.8252573150
H 0.0449016250 -0.5458359420 1.7101175760
H 0.7410873870 -2.1462029100 1.3941298220
H -2.3144277460 -0.1858307600 -1.4252046280
H -1.7308827630 0.6120068760 0.0472619330
H -2.7791965510 -0.8266426590 0.1588912180
C -0.1494494140 -1.5314708200 1.2902823540
S -0.5190971390 -1.4140110450 -0.4784170160
C -1.9804355720 -0.3469450670 -0.4032028500
