16
0 1
N -1.1925109770 0.4677159870 1.6969957070
H -2.1720465350 0.3451164770 1.9155307480
H -1.1209998660 0.6006820830 0.6941983180
C -0.6454964930 1.6244524150 2.4048233120
H 0.4092109080 1.7325513880 2.1530940810
H -1.1394772570 2.5775257580 2.1827646430
H -0.7060443570 1.4567873310 3.4797871280
H 2.2146898640 -0.9155892090 -0.2206202620
H 1.1171531840 -0.2523378290 1.0198962840
H 2.0550976740 0.8368984170 -0.0241853660
H -1.4452679720 -1.7327075090 -1.5288334770
H -0.8984016600 -1.7180794570 0.1611498960
H 0.1163268300 -2.4529731180 -1.1072713990
C 1.5232152620 -0.1103846300 0.0205224050
S 0.1794410900 -0.0330345820 -1.1927584000
C -0.5791840140 -1.6480634700 -0.8769261150
