11
0 1
H 2.0822904090 -1.4254108960 -0.5819716710
H 2.5624349130 -0.0726982400 0.4511673310
H 1.3028124150 0.1638302240 -0.7745792570
H -0.4561485760 -1.3944222350 0.3877716940
C 1.7272083880 -0.5388739350 -0.0648453350
S 0.5083370210 -0.9740801280 1.2194161360
H -1.0144214850 1.4523193120 0.3520165970
H -1.0870787100 2.6738616300 -0.9562619460
H -2.5386945840 1.7182551630 -0.5452336960
C -1.4522286360 1.7084312840 -0.6105289680
F -1.0743113130 0.7352489150 -1.5371098090
