25
0 1
C -2.3579099740 -0.5307631530 1.5138096910
H -2.4588881350 0.4310647810 2.0140641140
H -1.4356415000 -1.0123263080 1.8322439380
H -3.2036872900 -1.1446768480 1.8174747160
C -2.4351853830 -0.3119418000 0.0159270190
O -3.4135868770 0.1943318490 -0.5089147940
N -1.3525984040 -0.7291660710 -0.6884203180
H -0.5329276230 -1.0379593150 -0.1845887440
C -1.2650049230 -0.5632727690 -2.1234444720
H -2.2640938590 -0.6142959310 -2.5463743800
H -0.8317091330 0.4011266840 -2.4017529900
H -0.6533707160 -1.3576120240 -2.5462416590
H 1.8086884200 -0.5263529850 -1.5174233820
H 3.4584274360 -0.6617238700 -0.9044722130
H 2.5581435800 1.7631377950 -1.6432574130
H 2.0613147280 1.2587980200 2.1783885200
H 3.4843295100 1.6166419390 -0.1530726570
H 0.3646355940 0.8526983450 1.9009675970
H 1.4233625580 2.8323097480 0.4439499140
H 0.4386442200 1.6251995360 -0.3761605270
S 1.8420409700 -0.7808079540 0.8946727130
C 2.4881862320 -0.2047611240 -0.7313686380
C 2.5586349540 1.3194974130 -0.6477580750
C 1.3613421380 1.7756193350 0.1844202210
C 1.3459906180 0.9059254670 1.4386218540
