12
0 1
H 0.3893323140 2.3440454870 -1.6818066360
H -1.1998744820 1.7591983820 -2.1825468420
H 0.1021874670 0.6058349130 -1.8686483700
P -1.1705847390 1.3419585580 1.3289226680
C -0.7484701020 1.4553388160 -0.1481612860
C -0.3435028920 1.5476729020 -1.5397217490
H 1.7488020820 0.3389688740 0.0022331830
H 2.7922281980 -1.0804371570 -0.1895325570
H 1.7196452870 -0.9620655110 1.2126153680
H -0.5004977060 -1.0288047500 -0.2916789730
C 1.8220908280 -0.7332419260 0.1560096620
S 0.5753813430 -1.6235788470 -0.8300625680
