10
0 1
H -1.7243482310 -0.0273553600 -1.4740261930
H -1.2964354920 -1.4151597080 -2.4840978980
H -1.5723015250 0.1600276500 -3.2435389450
H 0.5277902060 1.2830509360 -1.9498356390
C -1.1850082300 -0.3412917070 -2.3620216420
S 0.6012469220 -0.0377290810 -2.1728921470
P 0.2521764440 -1.1143232580 0.4919684860
F -0.7854280980 0.1068894620 0.5718592010
F 0.3312974850 -1.4218592720 2.0671457000
H 1.4302221710 -0.3122569560 0.4542201490
