11
0 1
H -0.0916933190 -0.0170741370 -1.0314738490
Cl 0.6432304760 -0.4462036890 -2.0460584230
H 1.5910559800 0.7646710920 0.7155478580
H 0.9390926160 1.2011267350 2.3189883230
H 0.7003862920 2.2812982430 0.9341439020
H -1.3522953210 -1.8263249440 1.1846136370
H -0.2800780970 -1.2385681280 2.4677507890
H 0.3821501840 -1.6544704940 0.8630540550
C 0.7697196680 1.2423429200 1.2455187580
S -0.8039476960 0.4518825660 0.8220842250
C -0.4670233430 -1.2325070020 1.3964254230
