19
0 1
H 2.7551132200 -2.7530278080 -0.0328176870
H 2.2332844280 -3.6609344050 1.3916068170
H 2.8830458690 -2.0285956100 1.5887755350
H 0.8722703820 -0.8657236540 0.2518978060
C 2.2897893810 -2.6717485780 0.9452246590
S 0.5778623730 -2.0610727680 0.8069349350
H -0.6254911230 -0.7386479760 -1.5680446330
H -0.7204043550 0.7318736880 -2.5473997220
H -2.8629976740 0.0659189720 -1.0867805520
H -0.5765190030 2.4347174730 1.0460234740
H -2.3214411420 1.7427995390 -1.0506790600
H 0.1172101440 0.9944264480 1.8035381170
H -2.5290434200 1.0396467850 1.3075379390
H -1.6149607850 -0.4259341080 0.9789122290
S 0.6175578490 1.0827985100 -0.5658116620
C -0.7575854810 0.3415350540 -1.5340456930
C -2.0399279900 0.7195764110 -0.7974876170
C -1.7304833030 0.6205102320 0.6954192090
C -0.4163202270 1.3648528490 0.9321788850
