11
0 1
H 2.0822904090 -1.4254108960 -0.5819716710
H 2.5624349130 -0.0726982400 0.4511673310
H 1.3028124150 0.1638302240 -0.7745792570
H -0.4561485760 -1.3944222350 0.3877716940
C 1.7272083880 -0.5388739350 -0.0648453350
S 0.5083370210 -0.9740801280 1.2194161360
H -0.8955652990 1.4237483770 0.3901431250
H -0.9682225240 2.6452906950 -0.9181354180
H -2.4198383980 1.6896842280 -0.5071071680
C -1.3333724500 1.6798603490 -0.5724024400
F -0.9554551270 0.7066779800 -1.4989832810
