7
0 1
S 0.5005483280 0.1405082230 1.4718534330
P 0.0551555840 2.1169148250 2.0900382760
S -2.5646874350 -0.0622448420 2.4868453190
S -0.1199010740 -0.2004024640 4.6130142190
P -0.3786424560 1.8681402840 4.2855132070
P -2.0739623190 1.9633682080 2.8060314380
P -0.7151422560 -1.0465329620 2.7672895070
