15
0 1
H 2.3065589950 -2.0578968030 -0.6495230130
H 3.3203143790 -1.4747125170 0.6764130500
H 2.5230711920 -0.3108302420 -0.3888258540
H 0.0700263290 -1.0199365440 0.3602303490
C 2.4224976400 -1.2775177840 0.0968402290
S 1.0286578420 -1.2837738960 1.2709384620
H 0.6800062600 1.5173553780 0.0238180260
H -0.2328024890 2.7959964630 -0.8195028660
H 0.7820625750 1.6763645710 -1.7418406840
H -3.0256987710 0.2755558090 0.4160582340
H -2.5017648650 1.9671700550 0.4539486020
H -1.5409031640 0.7161615020 1.2805374780
C 0.1271087400 1.7707346310 -0.8791330050
S -1.2495325640 0.6191386760 -1.1199659480
C -2.1610795880 0.9344973060 0.4126947940
