16
0 1
H 0.0671929930 0.9717733360 0.0000000000
H 1.3230453480 2.4867834120 0.0000000000
S -0.0095528490 2.3404433530 0.0000000000
H 0.6240262470 -2.1759460180 -1.3031934240
H 0.2054723090 -0.6354470800 -2.0805064140
H 1.7256535580 -0.7889839990 -1.1975902800
H 1.7256535580 -0.7889839990 1.1975902800
H 0.6240262470 -2.1759460180 1.3031934240
H 0.2054723090 -0.6354470800 2.0805064140
H -1.6112672310 -1.9668795850 0.0000000000
H -1.8632752660 -0.4480572200 0.8827889050
C 0.6766111650 -1.0808978330 -1.2058754620
N 0.0241238600 -0.5991031660 0.0000000000
C 0.6766111650 -1.0808978330 1.2058754620
C -1.4005678230 -0.8868181000 0.0000000000
H -1.8632752660 -0.4480572200 -0.8827889050
