16
0 1
H 1.9404862670 -0.2831152240 0.3000300580
H 2.7088639690 -1.7496683630 -0.3363375550
H 2.5169729040 -1.5499622150 1.4105135820
H -0.1925665520 -1.5118813010 1.2109097400
C 2.0643968760 -1.3523450090 0.4434425040
S 0.4679423560 -2.2162719100 0.2804649020
H -2.7678665560 0.6912168930 0.3700093200
H -2.8258310420 1.1476925360 -1.3461598630
H -2.1839598490 -0.4189906020 -0.8926867350
H 0.8777547930 1.6233704070 -1.6852776740
H 0.1012100240 0.0531535510 -1.9867604250
C -2.2476255200 0.6255812060 -0.5794159190
C -0.8697233020 1.2063277690 -0.5015875350
S -0.2744572940 1.8727733710 0.8584954620
C -0.0739440090 1.1093435980 -1.7659020430
H -0.6418237340 1.5163174380 -2.6056565120
