14
0 1
H -0.8252440580 -0.1185131890 -2.1815071940
H -1.6981931010 1.2180868610 -2.9591993710
H -0.7189706580 0.1476409580 -3.9351217700
H 1.4175952820 3.2217576430 -3.6833042700
H 0.7352472600 2.0467860540 -4.8284426830
C -0.7735780570 0.6343576800 -2.9583614040
C 0.3925437990 1.5558191060 -2.7834777780
S 1.3927192710 1.4865874040 -1.5015700060
C 0.5789190300 2.5621075830 -3.8773560360
H -0.3320333370 3.1544601800 -3.9949345730
P 0.0501086010 -0.0943724160 0.8350041740
F -0.2451798910 -0.9714318560 2.1513018260
F -0.2881544310 -1.2323045980 -0.2438991360
H 1.4593403550 -0.3091444380 0.8491749000
