19
0 1
H 2.7551132200 -2.7530278080 -0.0328176870
H 2.2332844280 -3.6609344050 1.3916068170
H 2.8830458690 -2.0285956100 1.5887755350
H 0.8722703820 -0.8657236540 0.2518978060
C 2.2897893810 -2.6717485780 0.9452246590
S 0.5778623730 -2.0610727680 0.8069349350
H -0.7453558440 0.1783036310 -1.9528490890
H -0.8402690760 1.6488252950 -2.9322041780
H -2.9828623950 0.9828705790 -1.4715850080
H -0.6963837240 3.3516690800 0.6612190180
H -2.4413058630 2.6597511460 -1.4354835160
H -0.0026545770 1.9113780550 1.4187336610
H -2.6489081410 1.9565983920 0.9227334830
H -1.7348255060 0.4910174990 0.5941077730
S 0.4976931280 1.9997501170 -0.9506161180
C -0.8774502020 1.2584866610 -1.9188501490
C -2.1597927110 1.6365280180 -1.1822920730
C -1.8503480240 1.5374618390 0.3106147530
C -0.5361849480 2.2818044560 0.5473744290
