16
0 1
O -0.4292595150 1.2296804640 -2.5038082560
H -0.3615606800 1.3689077170 -1.5514468960
C -1.3799109120 0.2017092070 -2.7351714010
H -1.4185510400 0.0350798010 -3.8095066650
H -1.0967768190 -0.7359873450 -2.2484297380
H -2.3798479770 0.4833464480 -2.3929441780
H -0.5727287350 -2.5417491970 2.4152328380
H -0.1072961080 -0.9709687100 3.1039154310
H 1.0595393850 -1.9093686160 2.1331935780
H 1.6872917820 -0.0459804330 -1.2847075320
H 2.5015029980 -0.4051438380 0.2692542710
H 2.5608996400 1.2311155550 -0.4151525090
C 0.0147157800 -1.6384777680 2.2561830130
S -0.6428306940 -0.8702963510 0.7426950410
S 0.4526419880 0.8575796090 0.5912099040
C 1.9511778570 0.3355601640 -0.3034147820
