12
0 1
H -0.2606826530 0.6265387230 -1.6158020870
Cl 0.1058109800 1.5167026200 -2.4979026690
H 1.8088742130 -2.0241359770 2.7540121260
H 0.2105356230 -2.6427318460 2.2864136610
H 0.3557490480 -1.0960756440 3.1657833530
H -0.5873691650 1.8486241070 0.7520269340
H -1.2768191620 0.9736388190 2.1493446250
H -2.2939912130 1.3517093650 0.7442493930
C 0.8088175090 -1.7470550620 2.4235023100
S 1.0304510190 -0.8793110730 0.8392033980
S -0.9012665350 -0.5002769080 0.2592866760
C -1.2897082390 1.0837965760 1.0691362220
