13
0 1
N -1.7335514090 -2.3739396570 0.8198318930
H -2.4717221050 -2.4725624060 1.5051124170
H -1.7795323170 -1.4286728680 0.4555172290
H -1.9514590010 -2.9986757920 0.0538848770
H 0.9611833520 0.4985229900 1.7035352060
H 2.3282534070 -0.0065054890 0.6790817880
H 0.9906275260 -1.1328408660 1.0200543260
H 0.2673706360 2.6221241420 -1.5251537860
H 1.8478921450 2.3107425550 -0.7911411680
H 0.4430806820 2.6844482460 0.2362630620
C 1.2553331510 -0.0944863090 0.8391225260
S 0.3360972770 0.4240851010 -0.6322753840
C 0.7739177200 2.1806383900 -0.6703178080
