9
0 1
C 0.3159501330 -1.6374502990 0.0000000000
H 0.8154033660 -0.6977382090 0.0000000000
C -0.2594271850 -2.6862143750 0.0000000000
H -0.7639063370 -3.6198488580 0.0000000000
H -0.9845639390 2.2582681570 0.8938929020
H -0.9845639390 2.2582681570 -0.8938929020
H -1.2840606570 0.7393642170 0.0000000000
C -0.7465849960 1.6855307240 0.0000000000
F 0.6237699520 1.4172169830 0.0000000000
