11
0 1
P 1.6055483490 -0.3906178240 -0.7274059980
H 0.8826345100 -0.2881735740 0.4863654890
H 2.8716141110 -0.4727560020 -0.0952177660
H 1.6885200540 1.0128840150 -0.9096171990
N -1.4565017220 0.1021750420 1.3428592620
H -1.6570001660 0.7829637950 2.0628397420
H -1.9938523090 -0.7260655780 1.5606603900
C -1.8047783460 0.6195216200 0.0198361370
H -1.5621803490 -0.1290333120 -0.7335526720
H -2.8572472500 0.8970420570 -0.1065359270
H -1.1979048200 1.4991093860 -0.1921918820
