13
0 1
H 0.3532496550 2.1874223900 -0.7238057660
H 0.2325696130 2.5434918900 -2.4662246910
H 1.4796148930 1.4377687850 -1.8626486330
H -2.9787965610 0.3326997670 -1.6977403020
H -2.4353497720 1.8951564250 -2.3264083740
H -2.2483169660 1.5140910960 -0.5961500100
C 0.4563691020 1.7777671980 -1.7257174380
S -0.6188567900 0.3372689950 -1.9449069610
C -2.2221884860 1.1082080380 -1.6051752170
P 0.2337524150 -0.1610051550 2.1008660360
F -0.5852877860 1.1812375210 1.7957250680
F 1.5965066420 0.2032211560 1.3530387630
H -0.3230758460 -0.9032573500 1.0184523160
