12
0 1
O -1.1176551450 0.1143078460 -1.5506700530
H -0.4232165790 -0.3384514260 -1.0538257920
C -0.5857106610 1.3306403920 -2.0459226970
H -1.3874232410 1.8448359560 -2.5716866380
H -0.2297527600 1.9826425470 -1.2413827330
H 0.2368511230 1.1651188650 -2.7477447070
H -1.0397092260 0.4337171150 1.3263681590
H 0.4351111090 1.3030613990 1.7748998730
H -0.2279276470 0.0980725630 2.8851148520
H 0.2190312780 -1.9474902740 1.2290409970
C -0.0864666500 0.3518939160 1.8392732630
S 0.9885502150 -0.8698366820 1.0137331730
