9
0 1
O -0.5858253510 -1.6598548520 -1.5734840520
H -0.0748728830 -1.3479758470 -0.8127563060
H -0.1582982070 -2.4723689980 -1.8520179650
H -1.2483724780 0.6762832100 -0.9841105150
H 0.2513546830 1.6036708760 -1.0972810780
H -0.9108882920 1.9934868630 0.1786298210
H -0.6112025610 -0.3713614140 1.4064372070
C -0.4825245290 1.1894148810 -0.4115215480
S 0.4277617020 0.0191610070 0.6529353050
